Bivalirudin
     RDKit          2D

155160  0  0  1  0  0  0  0  0999 V2000
   12.7110   -4.9660    0.0000 N   0  0  0  0  0  0  0  0  0  0  0  0
   11.2438   -4.6541    0.0000 C   0  0  0  0  0  0  0  0  0  0  0  0
   10.7802   -3.2275    0.0000 N   0  0  0  0  0  0  0  0  0  0  0  0
   10.2401   -5.7688    0.0000 N   0  0  0  0  0  0  0  0  0  0  0  0
    8.7729   -5.4570    0.0000 C   0  0  0  0  0  0  0  0  0  0  0  0
    7.7692   -6.5717    0.0000 C   0  0  0  0  0  0  0  0  0  0  0  0
    6.3019   -6.2598    0.0000 C   0  0  0  0  0  0  0  0  0  0  0  0
    5.2982   -7.3745    0.0000 C   0  0  0  0  0  0  0  0  0  0  0  0
    3.8310   -7.0627    0.0000 N   0  0  0  0  0  0  0  0  0  0  0  0
    2.8273   -8.1774    0.0000 C   0  0  0  0  0  0  0  0  0  0  0  0
    3.2909   -9.6040    0.0000 O   0  0  0  0  0  0  0  0  0  0  0  0
    1.3601   -7.8655    0.0000 C   0  0  0  0  0  0  0  0  0  0  0  0
    0.7500   -6.4952    0.0000 C   0  0  0  0  0  0  0  0  0  0  0  0
   -0.7418   -6.6520    0.0000 C   0  0  0  0  0  0  0  0  0  0  0  0
   -1.0537   -8.1192    0.0000 C   0  0  0  0  0  0  0  0  0  0  0  0
    0.2454   -8.8692    0.0000 N   0  0  0  0  0  0  0  0  0  0  0  0
    0.4022  -10.3610    0.0000 C   0  0  0  0  0  0  0  0  0  0  0  0
    1.7725  -10.9711    0.0000 O   0  0  0  0  0  0  0  0  0  0  0  0
   -0.8113  -11.2427    0.0000 C   0  0  0  0  0  0  0  0  0  0  0  0
   -2.1817  -10.6326    0.0000 N   0  0  0  0  0  0  0  0  0  0  0  0
   -0.6546  -12.7344    0.0000 C   0  0  0  0  0  0  0  0  0  0  0  0
   -1.8681  -13.6161    0.0000 C   0  0  0  0  0  0  0  0  0  0  0  0
   -1.7113  -15.1079    0.0000 C   0  0  0  0  0  0  0  0  0  0  0  0
   -2.9248  -15.9896    0.0000 C   0  0  0  0  0  0  0  0  0  0  0  0
   -4.2951  -15.3795    0.0000 C   0  0  0  0  0  0  0  0  0  0  0  0
   -4.4519  -13.8877    0.0000 C   0  0  0  0  0  0  0  0  0  0  0  0
   -3.2384  -13.0060    0.0000 C   0  0  0  0  0  0  0  0  0  0  0  0
    5.7618   -8.8011    0.0000 C   0  0  0  0  0  0  0  0  0  0  0  0
    4.7581   -9.9158    0.0000 O   0  0  0  0  0  0  0  0  0  0  0  0
    7.2290   -9.1130    0.0000 N   0  0  0  0  0  0  0  0  0  0  0  0
    8.3437   -8.1093    0.0000 C   0  0  0  0  0  0  0  0  0  0  0  0
    9.6427   -8.8593    0.0000 C   0  0  0  0  0  0  0  0  0  0  0  0
    9.3309  -10.3265    0.0000 C   0  0  0  0  0  0  0  0  0  0  0  0
    7.8391  -10.4833    0.0000 C   0  0  0  0  0  0  0  0  0  0  0  0
    7.0891  -11.7823    0.0000 C   0  0  0  0  0  0  0  0  0  0  0  0
    5.5891  -11.7823    0.0000 O   0  0  0  0  0  0  0  0  0  0  0  0
    7.8391  -13.0814    0.0000 N   0  0  0  0  0  0  0  0  0  0  0  0
    7.0891  -14.3804    0.0000 C   0  0  0  0  0  0  0  0  0  0  0  0
    7.8391  -15.6794    0.0000 C   0  0  0  0  0  0  0  0  0  0  0  0
    9.3391  -15.6794    0.0000 O   0  0  0  0  0  0  0  0  0  0  0  0
    7.0891  -16.9785    0.0000 N   0  0  0  0  0  0  0  0  0  0  0  0
    7.8391  -18.2775    0.0000 C   0  0  0  0  0  0  0  0  0  0  0  0
    7.0891  -19.5766    0.0000 C   0  0  0  0  0  0  0  0  0  0  0  0
    5.5891  -19.5766    0.0000 O   0  0  0  0  0  0  0  0  0  0  0  0
    7.8391  -20.8756    0.0000 N   0  0  0  0  0  0  0  0  0  0  0  0
    7.0891  -22.1746    0.0000 C   0  0  0  0  0  0  0  0  0  0  0  0
    7.8391  -23.4737    0.0000 C   0  0  0  0  0  0  0  0  0  0  0  0
    9.3391  -23.4737    0.0000 O   0  0  0  0  0  0  0  0  0  0  0  0
    7.0891  -24.7727    0.0000 N   0  0  0  0  0  0  0  0  0  0  0  0
    7.8391  -26.0718    0.0000 C   0  0  0  0  0  0  0  0  0  0  0  0
    7.0891  -27.3708    0.0000 C   0  0  0  0  0  0  0  0  0  0  0  0
    5.5891  -27.3708    0.0000 O   0  0  0  0  0  0  0  0  0  0  0  0
    7.8391  -28.6698    0.0000 N   0  0  0  0  0  0  0  0  0  0  0  0
    7.0891  -29.9689    0.0000 C   0  0  0  0  0  0  0  0  0  0  0  0
    7.8391  -31.2679    0.0000 C   0  0  0  0  0  0  0  0  0  0  0  0
    7.0891  -32.5669    0.0000 C   0  0  0  0  0  0  0  0  0  0  0  0
    7.8391  -33.8660    0.0000 N   0  0  0  0  0  0  0  0  0  0  0  0
    5.5891  -32.5669    0.0000 O   0  0  0  0  0  0  0  0  0  0  0  0
    5.5891  -29.9689    0.0000 C   0  0  0  0  0  0  0  0  0  0  0  0
    4.8391  -28.6698    0.0000 O   0  0  0  0  0  0  0  0  0  0  0  0
    4.8391  -31.2679    0.0000 N   0  0  0  0  0  0  0  0  0  0  0  0
    3.3391  -31.2679    0.0000 C   0  0  0  0  0  0  0  0  0  0  0  0
    2.5891  -32.5669    0.0000 C   0  0  0  0  0  0  0  0  0  0  0  0
    3.3391  -33.8660    0.0000 O   0  0  0  0  0  0  0  0  0  0  0  0
    1.0891  -32.5669    0.0000 N   0  0  0  0  0  0  0  0  0  0  0  0
    0.3391  -33.8660    0.0000 C   0  0  0  0  0  0  0  0  0  0  0  0
   -1.1609  -33.8660    0.0000 C   0  0  0  0  0  0  0  0  0  0  0  0
   -1.9109  -35.1650    0.0000 C   0  0  0  0  0  0  0  0  0  0  0  0
   -3.4109  -35.1650    0.0000 O   0  0  0  0  0  0  0  0  0  0  0  0
   -1.1609  -36.4641    0.0000 O   0  0  0  0  0  0  0  0  0  0  0  0
    1.0891  -35.1650    0.0000 C   0  0  0  0  0  0  0  0  0  0  0  0
    2.5891  -35.1650    0.0000 O   0  0  0  0  0  0  0  0  0  0  0  0
    0.3391  -36.4641    0.0000 N   0  0  0  0  0  0  0  0  0  0  0  0
    1.0891  -37.7631    0.0000 C   0  0  0  0  0  0  0  0  0  0  0  0
    0.3391  -39.0621    0.0000 C   0  0  0  0  0  0  0  0  0  0  0  0
    1.0891  -40.3612    0.0000 C   0  0  0  0  0  0  0  0  0  0  0  0
    0.3391  -41.6602    0.0000 C   0  0  0  0  0  0  0  0  0  0  0  0
    1.0891  -42.9592    0.0000 C   0  0  0  0  0  0  0  0  0  0  0  0
    2.5891  -42.9592    0.0000 C   0  0  0  0  0  0  0  0  0  0  0  0
    3.3391  -41.6602    0.0000 C   0  0  0  0  0  0  0  0  0  0  0  0
    2.5891  -40.3612    0.0000 C   0  0  0  0  0  0  0  0  0  0  0  0
    2.5891  -37.7631    0.0000 C   0  0  0  0  0  0  0  0  0  0  0  0
    3.3391  -36.4641    0.0000 O   0  0  0  0  0  0  0  0  0  0  0  0
    3.3391  -39.0621    0.0000 N   0  0  0  0  0  0  0  0  0  0  0  0
    4.8391  -39.0621    0.0000 C   0  0  0  0  0  0  0  0  0  0  0  0
    5.5891  -37.7631    0.0000 C   0  0  0  0  0  0  0  0  0  0  0  0
    4.8391  -36.4641    0.0000 C   0  0  0  0  0  0  0  0  0  0  0  0
    5.5891  -35.1650    0.0000 C   0  0  0  0  0  0  0  0  0  0  0  0
    4.8391  -33.8660    0.0000 O   0  0  0  0  0  0  0  0  0  0  0  0
    7.0891  -35.1650    0.0000 O   0  0  0  0  0  0  0  0  0  0  0  0
    5.5891  -40.3612    0.0000 C   0  0  0  0  0  0  0  0  0  0  0  0
    4.8391  -41.6602    0.0000 O   0  0  0  0  0  0  0  0  0  0  0  0
    7.0891  -40.3612    0.0000 N   0  0  0  0  0  0  0  0  0  0  0  0
    7.8391  -41.6602    0.0000 C   0  0  0  0  0  0  0  0  0  0  0  0
    7.0891  -42.9592    0.0000 C   0  0  0  0  0  0  0  0  0  0  0  0
    5.5891  -42.9592    0.0000 C   0  0  0  0  0  0  0  0  0  0  0  0
    4.8391  -44.2583    0.0000 C   0  0  0  0  0  0  0  0  0  0  0  0
    3.3391  -44.2583    0.0000 O   0  0  0  0  0  0  0  0  0  0  0  0
    5.5891  -45.5573    0.0000 O   0  0  0  0  0  0  0  0  0  0  0  0
    9.3391  -41.6602    0.0000 C   0  0  0  0  0  0  0  0  0  0  0  0
   10.0891  -42.9592    0.0000 O   0  0  0  0  0  0  0  0  0  0  0  0
   10.0891  -40.3612    0.0000 N   0  0  0  0  0  0  0  0  0  0  0  0
   11.5891  -40.3612    0.0000 C   0  0  0  0  0  0  0  0  0  0  0  0
   12.3391  -41.6602    0.0000 C   0  0  0  0  0  0  0  0  0  0  0  0
   13.8391  -41.6602    0.0000 C   0  0  0  0  0  0  0  0  0  0  0  0
   11.5891  -42.9592    0.0000 C   0  0  0  0  0  0  0  0  0  0  0  0
   12.3391  -44.2583    0.0000 C   0  0  0  0  0  0  0  0  0  0  0  0
   12.3391  -39.0621    0.0000 C   0  0  0  0  0  0  0  0  0  0  0  0
   13.8391  -39.0621    0.0000 O   0  0  0  0  0  0  0  0  0  0  0  0
   11.5891  -37.7631    0.0000 N   0  0  0  0  0  0  0  0  0  0  0  0
   10.0973  -37.6063    0.0000 C   0  0  0  0  0  0  0  0  0  0  0  0
    9.7854  -36.1391    0.0000 C   0  0  0  0  0  0  0  0  0  0  0  0
   11.0845  -35.3891    0.0000 C   0  0  0  0  0  0  0  0  0  0  0  0
   12.1992  -36.3928    0.0000 C   0  0  0  0  0  0  0  0  0  0  0  0
   13.6664  -36.0809    0.0000 C   0  0  0  0  0  0  0  0  0  0  0  0
   14.6701  -37.1956    0.0000 O   0  0  0  0  0  0  0  0  0  0  0  0
   14.1299  -34.6543    0.0000 N   0  0  0  0  0  0  0  0  0  0  0  0
   15.5972  -34.3425    0.0000 C   0  0  0  0  0  0  0  0  0  0  0  0
   16.0607  -32.9159    0.0000 C   0  0  0  0  0  0  0  0  0  0  0  0
   17.5279  -32.6040    0.0000 C   0  0  0  0  0  0  0  0  0  0  0  0
   17.9914  -31.1774    0.0000 C   0  0  0  0  0  0  0  0  0  0  0  0
   19.4587  -30.8656    0.0000 O   0  0  0  0  0  0  0  0  0  0  0  0
   16.9877  -30.0627    0.0000 O   0  0  0  0  0  0  0  0  0  0  0  0
   16.6009  -35.4572    0.0000 C   0  0  0  0  0  0  0  0  0  0  0  0
   16.1373  -36.8838    0.0000 O   0  0  0  0  0  0  0  0  0  0  0  0
   18.0681  -35.1453    0.0000 N   0  0  0  0  0  0  0  0  0  0  0  0
   19.0718  -36.2600    0.0000 C   0  0  0  0  0  0  0  0  0  0  0  0
   20.5390  -35.9482    0.0000 C   0  0  0  0  0  0  0  0  0  0  0  0
   21.5427  -37.0629    0.0000 C   0  0  0  0  0  0  0  0  0  0  0  0
   23.0099  -36.7510    0.0000 C   0  0  0  0  0  0  0  0  0  0  0  0
   24.0136  -37.8657    0.0000 O   0  0  0  0  0  0  0  0  0  0  0  0
   23.4734  -35.3244    0.0000 O   0  0  0  0  0  0  0  0  0  0  0  0
   18.6083  -37.6866    0.0000 C   0  0  0  0  0  0  0  0  0  0  0  0
   17.1410  -37.9985    0.0000 O   0  0  0  0  0  0  0  0  0  0  0  0
   19.6120  -38.8013    0.0000 N   0  0  0  0  0  0  0  0  0  0  0  0
   19.1484  -40.2279    0.0000 C   0  0  0  0  0  0  0  0  0  0  0  0
   17.6812  -40.5398    0.0000 C   0  0  0  0  0  0  0  0  0  0  0  0
   17.2177  -41.9664    0.0000 C   0  0  0  0  0  0  0  0  0  0  0  0
   18.2214  -43.0811    0.0000 C   0  0  0  0  0  0  0  0  0  0  0  0
   17.7579  -44.5077    0.0000 C   0  0  0  0  0  0  0  0  0  0  0  0
   16.2906  -44.8195    0.0000 C   0  0  0  0  0  0  0  0  0  0  0  0
   15.8271  -46.2461    0.0000 O   0  0  0  0  0  0  0  0  0  0  0  0
   15.2869  -43.7048    0.0000 C   0  0  0  0  0  0  0  0  0  0  0  0
   15.7505  -42.2782    0.0000 C   0  0  0  0  0  0  0  0  0  0  0  0
   20.1521  -41.3426    0.0000 C   0  0  0  0  0  0  0  0  0  0  0  0
   21.6193  -41.0308    0.0000 O   0  0  0  0  0  0  0  0  0  0  0  0
   19.6886  -42.7692    0.0000 N   0  0  0  0  0  0  0  0  0  0  0  0
   20.6923  -43.8839    0.0000 C   0  0  0  0  0  0  0  0  0  0  0  0
   20.2288  -45.3105    0.0000 C   0  0  0  0  0  0  0  0  0  0  0  0
   21.2325  -46.4252    0.0000 C   0  0  0  0  0  0  0  0  0  0  0  0
   20.7689  -47.8518    0.0000 C   0  0  0  0  0  0  0  0  0  0  0  0
   22.6997  -46.1134    0.0000 C   0  0  0  0  0  0  0  0  0  0  0  0
   22.1595  -43.5721    0.0000 C   0  0  0  0  0  0  0  0  0  0  0  0
   22.6230  -42.1455    0.0000 O   0  0  0  0  0  0  0  0  0  0  0  0
   23.1632  -44.6868    0.0000 O   0  0  0  0  0  0  0  0  0  0  0  0
  1  2  2  0
  2  3  1  0
  2  4  1  0
  4  5  1  0
  5  6  1  0
  6  7  1  0
  8  7  1  1
  8  9  1  0
  9 10  1  0
 10 11  2  0
 12 10  1  1
 12 13  1  0
 13 14  1  0
 14 15  1  0
 15 16  1  0
 12 16  1  0
 16 17  1  0
 17 18  2  0
 17 19  1  0
 19 20  1  1
 19 21  1  0
 21 22  1  0
 22 23  2  0
 23 24  1  0
 24 25  2  0
 25 26  1  0
 26 27  2  0
 22 27  1  0
  8 28  1  0
 28 29  2  0
 28 30  1  0
 30 31  1  0
 31 32  1  0
 32 33  1  0
 33 34  1  0
 30 34  1  0
 34 35  1  1
 35 36  2  0
 35 37  1  0
 37 38  1  0
 38 39  1  0
 39 40  2  0
 39 41  1  0
 41 42  1  0
 42 43  1  0
 43 44  2  0
 43 45  1  0
 45 46  1  0
 46 47  1  0
 47 48  2  0
 47 49  1  0
 49 50  1  0
 50 51  1  0
 51 52  2  0
 51 53  1  0
 54 53  1  0
 54 55  1  1
 55 56  1  0
 56 57  1  0
 56 58  2  0
 54 59  1  0
 59 60  2  0
 59 61  1  0
 61 62  1  0
 62 63  1  0
 63 64  2  0
 63 65  1  0
 66 65  1  0
 66 67  1  6
 67 68  1  0
 68 69  1  0
 68 70  2  0
 66 71  1  0
 71 72  2  0
 71 73  1  0
 74 73  1  0
 74 75  1  6
 75 76  1  0
 76 77  2  0
 77 78  1  0
 78 79  2  0
 79 80  1  0
 80 81  2  0
 76 81  1  0
 74 82  1  0
 82 83  2  0
 82 84  1  0
 85 84  1  0
 85 86  1  1
 86 87  1  0
 87 88  1  0
 88 89  1  0
 88 90  2  0
 85 91  1  0
 91 92  2  0
 91 93  1  0
 94 93  1  0
 94 95  1  6
 95 96  1  0
 96 97  1  0
 97 98  1  0
 97 99  2  0
 94100  1  0
100101  2  0
100102  1  0
103102  1  6
103104  1  0
104105  1  1
104106  1  0
106107  1  0
103108  1  0
108109  2  0
108110  1  0
110111  1  0
111112  1  0
112113  1  0
113114  1  0
110114  1  0
114115  1  1
115116  2  0
115117  1  0
118117  1  0
118119  1  1
119120  1  0
120121  1  0
121122  1  0
121123  2  0
118124  1  0
124125  2  0
124126  1  0
127126  1  0
127128  1  1
128129  1  0
129130  1  0
130131  1  0
130132  2  0
127133  1  0
133134  2  0
133135  1  0
136135  1  0
136137  1  6
137138  1  0
138139  2  0
139140  1  0
140141  2  0
141142  1  0
141143  1  0
143144  2  0
138144  1  0
136145  1  0
145146  2  0
145147  1  0
148147  1  0
148149  1  6
149150  1  0
150151  1  0
150152  1  0
148153  1  0
153154  1  0
153155  2  0
M  END
>  <DATABASE_ID>  (1) 
DB00006

>  <DATABASE_NAME>  (1) 
drugbank

>  <SMILES>  (1) 
CC[C@H](C)[C@H](NC(=O)[C@H](CCC(O)=O)NC(=O)[C@H](CCC(O)=O)NC(=O)[C@H](CC1=CC=CC=C1)NC(=O)[C@H](CC(O)=O)NC(=O)CNC(=O)[C@H](CC(N)=O)NC(=O)CNC(=O)CNC(=O)CNC(=O)CNC(=O)[C@@H]1CCCN1C(=O)[C@H](CCCNC(N)=N)NC(=O)[C@@H]1CCCN1C(=O)[C@H](N)CC1=CC=CC=C1)C(=O)N1CCC[C@H]1C(=O)N[C@@H](CCC(O)=O)C(=O)N[C@@H](CCC(O)=O)C(=O)N[C@@H](CC1=CC=C(O)C=C1)C(=O)N[C@@H](CC(C)C)C(O)=O

>  <INCHI_IDENTIFIER>  (1) 
InChI=1S/C98H138N24O33/c1-5-52(4)82(96(153)122-39-15-23-70(122)92(149)114-60(30-34-79(134)135)85(142)111-59(29-33-78(132)133)86(143)116-64(43-55-24-26-56(123)27-25-55)89(146)118-67(97(154)155)40-51(2)3)119-87(144)61(31-35-80(136)137)112-84(141)58(28-32-77(130)131)113-88(145)63(42-54-18-10-7-11-19-54)117-90(147)66(45-81(138)139)110-76(129)50-107-83(140)65(44-71(100)124)109-75(128)49-106-73(126)47-104-72(125)46-105-74(127)48-108-91(148)68-21-13-38-121(68)95(152)62(20-12-36-103-98(101)102)115-93(150)69-22-14-37-120(69)94(151)57(99)41-53-16-8-6-9-17-53/h6-11,16-19,24-27,51-52,57-70,82,123H,5,12-15,20-23,28-50,99H2,1-4H3,(H2,100,124)(H,104,125)(H,105,127)(H,106,126)(H,107,140)(H,108,148)(H,109,128)(H,110,129)(H,111,142)(H,112,141)(H,113,145)(H,114,149)(H,115,150)(H,116,143)(H,117,147)(H,118,146)(H,119,144)(H,130,131)(H,132,133)(H,134,135)(H,136,137)(H,138,139)(H,154,155)(H4,101,102,103)/t52-,57+,58-,59-,60-,61-,62-,63-,64-,65-,66-,67-,68-,69-,70-,82-/m0/s1

>  <INCHI_KEY>  (1) 
OIRCOABEOLEUMC-GEJPAHFPSA-N

>  <FORMULA>  (1) 
C98H138N24O33

>  <MOLECULAR_WEIGHT>  (1) 
2180.2853

>  <EXACT_MASS>  (1) 
2178.985813062

>  <JCHEM_ACCEPTOR_COUNT>  (1) 
37

>  <JCHEM_AVERAGE_POLARIZABILITY>  (1) 
215.45560313091494

>  <JCHEM_BIOAVAILABILITY>  (1) 
0

>  <JCHEM_DONOR_COUNT>  (1) 
28

>  <JCHEM_FORMAL_CHARGE>  (1) 
0

>  <JCHEM_GHOSE_FILTER>  (1) 
0

>  <JCHEM_IUPAC>  (1) 
(4S)-4-[(2S)-2-[(2S)-2-[(2S)-2-{2-[(2S)-2-(2-{2-[2-(2-{[(2S)-1-[(2S)-2-{[(2S)-1-[(2R)-2-amino-3-phenylpropanoyl]pyrrolidin-2-yl]formamido}-5-carbamimidamidopentanoyl]pyrrolidin-2-yl]formamido}acetamido)acetamido]acetamido}acetamido)-3-carbamoylpropanamido]acetamido}-3-carboxypropanamido]-3-phenylpropanamido]-4-carboxybutanamido]-4-{[(2S,3S)-1-[(2S)-2-{[(1S)-3-carboxy-1-{[(1S)-3-carboxy-1-{[(1S)-1-{[(1S)-1-carboxy-3-methylbutyl]carbamoyl}-2-(4-hydroxyphenyl)ethyl]carbamoyl}propyl]carbamoyl}propyl]carbamoyl}pyrrolidin-1-yl]-3-methyl-1-oxopentan-2-yl]carbamoyl}butanoic acid

>  <ALOGPS_LOGP>  (1) 
-0.76

>  <JCHEM_LOGP>  (1) 
-14.345512778557275

>  <ALOGPS_LOGS>  (1) 
-4.67

>  <JCHEM_MDDR_LIKE_RULE>  (1) 
1

>  <JCHEM_NUMBER_OF_RINGS>  (1) 
6

>  <JCHEM_PHYSIOLOGICAL_CHARGE>  (1) 
-4

>  <JCHEM_PKA>  (1) 
3.177101336420163

>  <JCHEM_PKA_STRONGEST_ACIDIC>  (1) 
2.7944312684415116

>  <JCHEM_PKA_STRONGEST_BASIC>  (1) 
11.878406919439332

>  <JCHEM_POLAR_SURFACE_AREA>  (1) 
901.5700000000003

>  <JCHEM_REFRACTIVITY>  (1) 
543.3342000000006

>  <JCHEM_ROTATABLE_BOND_COUNT>  (1) 
66

>  <JCHEM_RULE_OF_FIVE>  (1) 
0

>  <ALOGPS_SOLUBILITY>  (1) 
4.64e-02 g/l

>  <JCHEM_TRADITIONAL_IUPAC>  (1) 
bivalirudin

>  <JCHEM_VEBER_RULE>  (1) 
0

>  <DRUGBANK_ID>  (1) 
DB00006

>  <SECONDARY_ACCESSION_NUMBERS>  (1) 
BTD00076; EXPT03302; BIOD00076; DB02351

>  <DRUG_GROUPS>  (1) 
approved; investigational

>  <GENERIC_NAME>  (1) 
Bivalirudin

>  <SYNONYMS>  (1) 
Bivalirudin; Bivalirudina; Bivalirudinum; Hirulog

>  <PRODUCTS>  (1) 
Angiomax; Bivalirudin; Bivalirudin for Injection; Bivalirudin in 0.9% Sodium Chloride

$$$$
Goserelin
     RDKit          3D

 91 96  0  0  1  0  0  0  0  0999 V2000
   -9.2567    0.2836    2.2519 O   0  0  0  0  0  0  0  0  0  0  0  0
  -10.1176    3.3890    0.1271 O   0  0  0  0  0  0  0  0  0  0  0  0
   -5.8956    0.0883    0.5294 O   0  0  0  0  0  0  0  0  0  0  0  0
   -3.2621    0.9551    2.1995 O   0  0  0  0  0  0  0  0  0  0  0  0
   -2.2618    2.0805   -1.4223 O   0  0  0  0  0  0  0  0  0  0  0  0
  -10.5868    5.8570    0.9497 O   0  0  0  0  0  0  0  0  0  0  0  0
   -0.4679    0.6041   -1.8814 O   0  0  0  0  0  0  0  0  0  0  0  0
   10.1552    1.3205   -1.6341 O   0  0  0  0  0  0  0  0  0  0  0  0
   13.0193    1.6324    2.0250 O   0  0  0  0  0  0  0  0  0  0  0  0
    7.2155    2.9069   -0.6696 O   0  0  0  0  0  0  0  0  0  0  0  0
    6.1551   -0.7451    0.8890 O   0  0  0  0  0  0  0  0  0  0  0  0
    1.7252    0.6652   -0.2542 O   0  0  0  0  0  0  0  0  0  0  0  0
    4.0307    0.7865    2.7262 O   0  0  0  0  0  0  0  0  0  0  0  0
   -0.8579   -7.9116    0.5706 O   0  0  0  0  0  0  0  0  0  0  0  0
  -10.9378    0.6890    0.7420 N   0  0  0  0  0  0  0  0  0  0  0  0
   -7.4769    1.3312   -0.4077 N   0  0  0  0  0  0  0  0  0  0  0  0
  -12.2008    3.9458   -0.8175 N   0  0  0  0  0  0  0  0  0  0  0  0
   -3.8645    1.8284    0.1685 N   0  0  0  0  0  0  0  0  0  0  0  0
  -11.5921    5.1262   -0.9955 N   0  0  0  0  0  0  0  0  0  0  0  0
   -9.3637   -2.9150   -0.9927 N   0  0  0  0  0  0  0  0  0  0  0  0
   -0.9278    0.4310    0.3031 N   0  0  0  0  0  0  0  0  0  0  0  0
   12.7966    0.3191   -0.0172 N   0  0  0  0  0  0  0  0  0  0  0  0
    9.9405    1.4378    0.6200 N   0  0  0  0  0  0  0  0  0  0  0  0
  -10.2330    7.2031   -0.9195 N   0  0  0  0  0  0  0  0  0  0  0  0
    1.4513   -1.6126   -0.2493 N   0  0  0  0  0  0  0  0  0  0  0  0
    7.6885    0.7064   -0.3985 N   0  0  0  0  0  0  0  0  0  0  0  0
    4.2201    0.1390   -0.1065 N   0  0  0  0  0  0  0  0  0  0  0  0
  -11.4011   -2.8543    0.5712 N   0  0  0  0  0  0  0  0  0  0  0  0
  -11.1955   -1.6376   -1.4930 N   0  0  0  0  0  0  0  0  0  0  0  0
    9.0075   -2.3374    0.5606 N   0  0  0  0  0  0  0  0  0  0  0  0
    9.9754    5.9484    0.5304 N   0  0  0  0  0  0  0  0  0  0  0  0
    9.3308    6.0257   -1.5800 N   0  0  0  0  0  0  0  0  0  0  0  0
  -11.5645    1.5605   -0.1544 C   0  0  1  0  0  0  0  0  0  0  0  0
  -12.9920    1.2890   -0.2220 C   0  0  0  0  0  0  0  0  0  0  0  0
  -13.1130   -0.1536    0.2703 C   0  0  0  0  0  0  0  0  0  0  0  0
  -11.9537   -0.1522    1.3249 C   0  0  0  0  0  0  0  0  0  0  0  0
   -9.4521    0.5061    1.0046 C   0  0  0  0  0  0  0  0  0  0  0  0
   -8.4786    0.6273    0.0346 C   0  0  2  0  0  0  0  0  0  0  0  0
  -11.1977    2.9101   -0.2411 C   0  0  0  0  0  0  0  0  0  0  0  0
   -7.9332   -0.9455   -0.1809 C   0  0  0  0  0  0  0  0  0  0  0  0
   -8.6506   -1.8943    0.7316 C   0  0  0  0  0  0  0  0  0  0  0  0
   -5.0455    1.9250   -0.5640 C   0  0  2  0  0  0  0  0  0  0  0  0
   -6.0803    1.0771   -0.1360 C   0  0  0  0  0  0  0  0  0  0  0  0
   -4.8855    1.0501   -1.9107 C   0  0  0  0  0  0  0  0  0  0  0  0
   -4.6213   -0.3027   -1.6339 C   0  0  0  0  0  0  0  0  0  0  0  0
   -8.3743   -3.4693    0.0337 C   0  0  0  0  0  0  0  0  0  0  0  0
   -3.4963   -0.8483   -0.9109 C   0  0  0  0  0  0  0  0  0  0  0  0
   -5.0208   -1.3609   -2.6456 C   0  0  0  0  0  0  0  0  0  0  0  0
   -2.6165    1.9370   -0.3654 C   0  0  0  0  0  0  0  0  0  0  0  0
   -1.4433    1.6755    0.7602 C   0  0  1  0  0  0  0  0  0  0  0  0
   -2.1664    1.7361    1.9728 C   0  0  0  0  0  0  0  0  0  0  0  0
  -10.8517    5.9818   -0.2570 C   0  0  0  0  0  0  0  0  0  0  0  0
   11.5937   -0.1533   -0.4293 C   0  0  1  0  0  0  0  0  0  0  0  0
   -3.1691   -0.3839    2.1717 C   0  0  0  0  0  0  0  0  0  0  0  0
    0.1476   -1.5545   -0.9365 C   0  0  2  0  0  0  0  0  0  0  0  0
   -0.4426   -0.1244   -0.8703 C   0  0  0  0  0  0  0  0  0  0  0  0
  -10.6775   -2.7212   -0.5101 C   0  0  0  0  0  0  0  0  0  0  0  0
   11.1825   -1.0459    0.7793 C   0  0  0  0  0  0  0  0  0  0  0  0
    9.0490    2.3637    0.8632 C   0  0  1  0  0  0  0  0  0  0  0  0
    6.4533    0.3727   -1.1800 C   0  0  1  0  0  0  0  0  0  0  0  0
   11.5137   -0.2628    1.9628 C   0  0  0  0  0  0  0  0  0  0  0  0
   -0.7542   -2.3790   -0.1388 C   0  0  0  0  0  0  0  0  0  0  0  0
    6.8657   -0.8963   -1.9653 C   0  0  0  0  0  0  0  0  0  0  0  0
   10.4968    0.9331   -0.5044 C   0  0  0  0  0  0  0  0  0  0  0  0
   12.5322    0.7170    1.4059 C   0  0  0  0  0  0  0  0  0  0  0  0
    8.9801    3.7409    1.1046 C   0  0  0  0  0  0  0  0  0  0  0  0
    3.4511   -0.4944    0.8312 C   0  0  2  0  0  0  0  0  0  0  0  0
    7.8686    2.1085   -0.1069 C   0  0  0  0  0  0  0  0  0  0  0  0
   -4.4606   -0.9162    2.9391 C   0  0  0  0  0  0  0  0  0  0  0  0
   -1.9001   -0.8576    2.8555 C   0  0  0  0  0  0  0  0  0  0  0  0
   -3.2381   -1.2034    0.9514 C   0  0  0  0  0  0  0  0  0  0  0  0
    7.5403   -1.8911   -1.0790 C   0  0  0  0  0  0  0  0  0  0  0  0
    5.6629   -0.1367   -0.0274 C   0  0  0  0  0  0  0  0  0  0  0  0
    2.0990   -0.4787    0.0328 C   0  0  0  0  0  0  0  0  0  0  0  0
   -0.6168   -3.7485    0.0795 C   0  0  0  0  0  0  0  0  0  0  0  0
    7.6498   -3.1358   -0.9818 C   0  0  0  0  0  0  0  0  0  0  0  0
    9.3738    4.8024    0.2984 C   0  0  0  0  0  0  0  0  0  0  0  0
    8.3918   -1.3373   -0.0782 C   0  0  0  0  0  0  0  0  0  0  0  0
    8.6306   -3.5864   -0.0357 C   0  0  0  0  0  0  0  0  0  0  0  0
    3.1155   -0.1710    2.1905 C   0  0  0  0  0  0  0  0  0  0  0  0
    7.1327   -4.2498   -1.6690 C   0  0  0  0  0  0  0  0  0  0  0  0
   -1.0032   -4.5990   -0.9785 C   0  0  0  0  0  0  0  0  0  0  0  0
   -0.2337   -4.4077    1.2937 C   0  0  0  0  0  0  0  0  0  0  0  0
    9.0488   -4.7981    0.2606 C   0  0  0  0  0  0  0  0  0  0  0  0
    8.9307    4.8188   -1.1159 C   0  0  0  0  0  0  0  0  0  0  0  0
    7.5220   -5.5881   -1.4436 C   0  0  0  0  0  0  0  0  0  0  0  0
    8.4679   -5.8265   -0.4248 C   0  0  0  0  0  0  0  0  0  0  0  0
   -1.0182   -5.9593   -0.8223 C   0  0  0  0  0  0  0  0  0  0  0  0
   -0.2888   -5.7061    1.3442 C   0  0  0  0  0  0  0  0  0  0  0  0
    9.9288    6.6542   -0.5880 C   0  0  0  0  0  0  0  0  0  0  0  0
   -0.7009   -6.7339    0.3930 C   0  0  0  0  0  0  0  0  0  0  0  0
  1 37  2  0
  2 39  2  0
  3 43  2  0
  4 51  1  0
  4 54  1  0
  5 49  2  0
  6 52  2  0
  7 56  2  0
  8 64  2  0
  9 65  2  0
 10 68  2  0
 11 73  2  0
 12 74  2  0
 13 80  1  0
 14 91  1  0
 15 33  1  0
 15 36  1  0
 15 37  1  0
 38 16  1  0
 16 43  1  0
 17 19  1  0
 17 39  1  0
 42 18  1  0
 18 49  1  0
 19 52  1  0
 20 46  1  0
 20 57  2  3
 50 21  1  0
 21 56  1  0
 22 53  1  0
 22 65  1  0
 59 23  1  0
 23 64  1  0
 24 52  1  0
 55 25  1  0
 25 74  1  0
 60 26  1  0
 26 68  1  0
 67 27  1  0
 27 73  1  0
 28 57  1  0
 29 57  1  0
 30 78  1  0
 30 79  1  0
 31 77  1  0
 31 90  1  0
 32 85  1  0
 32 90  2  0
 33 34  1  0
 33 39  1  1
 34 35  1  0
 35 36  1  0
 37 38  1  0
 38 40  1  1
 40 41  1  0
 41 46  1  0
 42 43  1  0
 42 44  1  6
 44 45  1  0
 45 47  1  0
 45 48  1  0
 49 50  1  0
 50 51  1  1
 53 58  1  0
 53 64  1  1
 54 69  1  0
 54 70  1  0
 54 71  1  0
 55 56  1  0
 55 62  1  1
 58 61  1  0
 59 66  1  6
 59 68  1  0
 60 63  1  6
 60 73  1  0
 61 65  1  0
 62 75  1  0
 63 72  1  0
 66 77  1  0
 67 74  1  0
 67 80  1  1
 72 76  1  0
 72 78  2  0
 75 82  2  0
 75 83  1  0
 76 79  2  0
 76 81  1  0
 77 85  2  0
 79 84  1  0
 81 86  2  0
 82 88  1  0
 83 89  2  0
 84 87  2  0
 86 87  1  0
 88 91  2  0
 89 91  1  0
M  END
>  <DATABASE_ID>  (2) 
DB00014

>  <DATABASE_NAME>  (2) 
drugbank

>  <SMILES>  (2) 
CC(C)C[C@H](NC(=O)[C@@H](COC(C)(C)C)NC(=O)[C@H](CC1=CC=C(O)C=C1)NC(=O)[C@H](CO)NC(=O)[C@H](CC1=CNC2=CC=CC=C12)NC(=O)[C@H](CC1=CN=CN1)NC(=O)[C@@H]1CCC(=O)N1)C(=O)N[C@@H](CCCN=C(N)N)C(=O)N1CCC[C@H]1C(=O)NNC(N)=O

>  <INCHI_IDENTIFIER>  (2) 
InChI=1S/C59H84N18O14/c1-31(2)22-40(49(82)68-39(12-8-20-64-57(60)61)56(89)77-21-9-13-46(77)55(88)75-76-58(62)90)69-54(87)45(29-91-59(3,4)5)74-50(83)41(23-32-14-16-35(79)17-15-32)70-53(86)44(28-78)73-51(84)42(24-33-26-65-37-11-7-6-10-36(33)37)71-52(85)43(25-34-27-63-30-66-34)72-48(81)38-18-19-47(80)67-38/h6-7,10-11,14-17,26-27,30-31,38-46,65,78-79H,8-9,12-13,18-25,28-29H2,1-5H3,(H,63,66)(H,67,80)(H,68,82)(H,69,87)(H,70,86)(H,71,85)(H,72,81)(H,73,84)(H,74,83)(H,75,88)(H4,60,61,64)(H3,62,76,90)/t38-,39-,40-,41-,42-,43-,44-,45+,46-/m0/s1

>  <INCHI_KEY>  (2) 
BLCLNMBMMGCOAS-URPVMXJPSA-N

>  <FORMULA>  (2) 
C59H84N18O14

>  <MOLECULAR_WEIGHT>  (2) 
1269.4105

>  <EXACT_MASS>  (2) 
1268.641439486

>  <JCHEM_ACCEPTOR_COUNT>  (2) 
18

>  <JCHEM_AVERAGE_POLARIZABILITY>  (2) 
131.22118283534343

>  <JCHEM_BIOAVAILABILITY>  (2) 
0

>  <JCHEM_DONOR_COUNT>  (2) 
17

>  <JCHEM_FORMAL_CHARGE>  (2) 
0

>  <JCHEM_GHOSE_FILTER>  (2) 
0

>  <JCHEM_IUPAC>  (2) 
(2S)-1-[(2S)-2-[(2S)-2-[(2R)-3-(tert-butoxy)-2-[(2S)-2-[(2S)-3-hydroxy-2-[(2S)-2-[(2S)-3-(1H-imidazol-5-yl)-2-{[(2S)-5-oxopyrrolidin-2-yl]formamido}propanamido]-3-(1H-indol-3-yl)propanamido]propanamido]-3-(4-hydroxyphenyl)propanamido]propanamido]-4-methylpentanamido]-5-[(diaminomethylidene)amino]pentanoyl]-N-(carbamoylamino)pyrrolidine-2-carboxamide

>  <ALOGPS_LOGP>  (2) 
0.30

>  <JCHEM_LOGP>  (2) 
-5.17557331843203

>  <ALOGPS_LOGS>  (2) 
-4.65

>  <JCHEM_MDDR_LIKE_RULE>  (2) 
1

>  <JCHEM_NUMBER_OF_RINGS>  (2) 
6

>  <JCHEM_PHYSIOLOGICAL_CHARGE>  (2) 
2

>  <JCHEM_PKA>  (2) 
9.818594492171766

>  <JCHEM_PKA_STRONGEST_ACIDIC>  (2) 
9.267832115311407

>  <JCHEM_PKA_STRONGEST_BASIC>  (2) 
10.816089522841512

>  <JCHEM_POLAR_SURFACE_AREA>  (2) 
495.8899999999997

>  <JCHEM_REFRACTIVITY>  (2) 
325.83880000000016

>  <JCHEM_ROTATABLE_BOND_COUNT>  (2) 
33

>  <JCHEM_RULE_OF_FIVE>  (2) 
0

>  <ALOGPS_SOLUBILITY>  (2) 
2.83e-02 g/l

>  <JCHEM_TRADITIONAL_IUPAC>  (2) 
(2S)-1-[(2S)-2-[(2S)-2-[(2R)-3-(tert-butoxy)-2-[(2S)-2-[(2S)-3-hydroxy-2-[(2S)-2-[(2S)-3-(3H-imidazol-4-yl)-2-{[(2S)-5-oxopyrrolidin-2-yl]formamido}propanamido]-3-(1H-indol-3-yl)propanamido]propanamido]-3-(4-hydroxyphenyl)propanamido]propanamido]-4-methylpentanamido]-5-[(diaminomethylidene)amino]pentanoyl]-N-(carbamoylamino)pyrrolidine-2-carboxamide

>  <JCHEM_VEBER_RULE>  (2) 
0

>  <DRUGBANK_ID>  (2) 
DB00014

>  <SECONDARY_ACCESSION_NUMBERS>  (2) 
BTD00113; BIOD00113

>  <DRUG_GROUPS>  (2) 
approved

>  <GENERIC_NAME>  (2) 
Goserelin

>  <SYNONYMS>  (2) 
Goserelin; Goserelina

>  <PRODUCTS>  (2) 
Zoladex; Zoladex LA

>  <SALTS>  (2) 
Goserelin acetate

$$$$
Gramicidin D
     RDKit          2D

131138  0  0  0  0  0  0  0  0999 V2000
   -2.9056  -16.9343    0.0000 C   0  0  0  0  0  0  0  0  0  0  0  0
   -0.3643  -17.4745    0.0000 O   0  0  0  0  0  0  0  0  0  0  0  0
   -1.4790  -16.4708    0.0000 C   0  0  0  0  0  0  0  0  0  0  0  0
   -3.2175  -18.4015    0.0000 C   0  0  0  0  0  0  0  0  0  0  0  0
   -4.6441  -18.8651    0.0000 C   0  0  0  0  0  0  0  0  0  0  0  0
   -2.1028  -19.4052    0.0000 C   0  0  0  0  0  0  0  0  0  0  0  0
    0.2594  -14.5400    0.0000 C   0  0  0  0  0  0  0  0  0  0  0  0
   -0.5434  -12.0691    0.0000 O   0  0  0  0  0  0  0  0  0  0  0  0
    0.5713  -13.0728    0.0000 C   0  0  0  0  0  0  0  0  0  0  0  0
    2.3097  -11.1421    0.0000 C   0  0  0  0  0  0  0  0  0  0  0  0
    4.0482   -9.2113    0.0000 O   0  0  0  0  0  0  0  0  0  0  0  0
    3.7363  -10.6785    0.0000 C   0  0  0  0  0  0  0  0  0  0  0  0
    1.1950  -10.1384    0.0000 C   0  0  0  0  0  0  0  0  0  0  0  0
    1.5069   -8.6712    0.0000 C   0  0  0  0  0  0  0  0  0  0  0  0
    0.1824   -7.9670    0.0000 C   0  0  0  0  0  0  0  0  0  0  0  0
    2.9335   -8.2076    0.0000 C   0  0  0  0  0  0  0  0  0  0  0  0
    6.2776  -11.2187    0.0000 C   0  0  0  0  0  0  0  0  0  0  0  0
    8.0161   -9.2880    0.0000 O   0  0  0  0  0  0  0  0  0  0  0  0
    7.3923  -12.2224    0.0000 C   0  0  0  0  0  0  0  0  0  0  0  0
    6.5895   -9.7515    0.0000 C   0  0  0  0  0  0  0  0  0  0  0  0
    5.7866   -7.2806    0.0000 C   0  0  0  0  0  0  0  0  0  0  0  0
    4.9838   -4.8097    0.0000 O   0  0  0  0  0  0  0  0  0  0  0  0
    4.6719   -6.2769    0.0000 C   0  0  0  0  0  0  0  0  0  0  0  0
    7.2132   -6.8171    0.0000 C   0  0  0  0  0  0  0  0  0  0  0  0
    8.3279   -7.8207    0.0000 C   0  0  0  0  0  0  0  0  0  0  0  0
    7.5251   -5.3498    0.0000 C   0  0  0  0  0  0  0  0  0  0  0  0
    2.1306   -5.7367    0.0000 C   0  0  0  0  0  0  0  0  0  0  0  0
   -0.4107   -5.1965    0.0000 O   0  0  0  0  0  0  0  0  0  0  0  0
    0.7040   -6.2002    0.0000 C   0  0  0  0  0  0  0  0  0  0  0  0
    2.4425   -4.2695    0.0000 C   0  0  0  0  0  0  0  0  0  0  0  0
    3.8691   -3.8060    0.0000 C   0  0  0  0  0  0  0  0  0  0  0  0
    1.6038   -3.0259    0.0000 C   0  0  0  0  0  0  0  0  0  0  0  0
   -1.0344   -8.1310    0.0000 C   0  0  0  0  0  0  0  0  0  0  0  0
   -3.5757   -7.5908    0.0000 O   0  0  0  0  0  0  0  0  0  0  0  0
   -2.1491   -7.1273    0.0000 C   0  0  0  0  0  0  0  0  0  0  0  0
   -1.3463   -9.5982    0.0000 C   0  0  0  0  0  0  0  0  0  0  0  0
   -0.2316  -10.6019    0.0000 C   0  0  0  0  0  0  0  0  0  0  0  0
   -2.7729  -10.0617    0.0000 C   0  0  0  0  0  0  0  0  0  0  0  0
   -2.9520   -4.6564    0.0000 C   0  0  0  0  0  0  0  0  0  0  0  0
   -5.4933   -4.1162    0.0000 O   0  0  0  0  0  0  0  0  0  0  0  0
   -4.3786   -5.1199    0.0000 C   0  0  0  0  0  0  0  0  0  0  0  0
   -2.6401   -3.1891    0.0000 C   0  0  0  0  0  0  0  0  0  0  0  0
   -0.0000   -3.6073    0.0000 C   0  0  0  0  0  0  0  0  0  0  0  0
   -1.2135   -2.7256    0.0000 C   0  0  0  0  0  0  0  0  0  0  0  0
   -0.7500   -1.2990    0.0000 C   0  0  0  0  0  0  0  0  0  0  0  0
    0.7500   -1.2990    0.0000 C   0  0  0  0  0  0  0  0  0  0  0  0
    1.5000    0.0000    0.0000 C   0  0  0  0  0  0  0  0  0  0  0  0
    0.7500    1.2990    0.0000 C   0  0  0  0  0  0  0  0  0  0  0  0
   -0.7500    1.2990    0.0000 C   0  0  0  0  0  0  0  0  0  0  0  0
   -1.5000    0.0000    0.0000 C   0  0  0  0  0  0  0  0  0  0  0  0
   -6.1170   -7.0506    0.0000 C   0  0  0  0  0  0  0  0  0  0  0  0
   -6.9199   -4.5797    0.0000 O   0  0  0  0  0  0  0  0  0  0  0  0
   -7.2317   -6.0469    0.0000 C   0  0  0  0  0  0  0  0  0  0  0  0
   -6.4289   -8.5179    0.0000 C   0  0  0  0  0  0  0  0  0  0  0  0
   -7.8555   -8.9814    0.0000 C   0  0  0  0  0  0  0  0  0  0  0  0
   -8.1673  -10.4486    0.0000 C   0  0  0  0  0  0  0  0  0  0  0  0
   -8.9702   -7.9777    0.0000 C   0  0  0  0  0  0  0  0  0  0  0  0
   -9.7730   -5.5068    0.0000 C   0  0  0  0  0  0  0  0  0  0  0  0
   -8.0346   -3.5760    0.0000 O   0  0  0  0  0  0  0  0  0  0  0  0
   -9.4612   -4.0396    0.0000 C   0  0  0  0  0  0  0  0  0  0  0  0
  -11.1996   -5.9703    0.0000 C   0  0  0  0  0  0  0  0  0  0  0  0
  -12.1575   -3.4748    0.0000 C   0  0  0  0  0  0  0  0  0  0  0  0
  -12.3143   -4.9666    0.0000 C   0  0  0  0  0  0  0  0  0  0  0  0
  -13.7816   -5.2785    0.0000 C   0  0  0  0  0  0  0  0  0  0  0  0
  -14.5316   -3.9794    0.0000 C   0  0  0  0  0  0  0  0  0  0  0  0
  -16.0316   -3.9794    0.0000 C   0  0  0  0  0  0  0  0  0  0  0  0
  -16.7816   -5.2785    0.0000 C   0  0  0  0  0  0  0  0  0  0  0  0
  -16.0316   -6.5775    0.0000 C   0  0  0  0  0  0  0  0  0  0  0  0
  -14.5316   -6.5775    0.0000 C   0  0  0  0  0  0  0  0  0  0  0  0
  -10.2640   -1.5686    0.0000 C   0  0  0  0  0  0  0  0  0  0  0  0
   -7.7227   -2.1088    0.0000 O   0  0  0  0  0  0  0  0  0  0  0  0
   -8.8374   -1.1051    0.0000 C   0  0  0  0  0  0  0  0  0  0  0  0
  -11.3787   -0.5649    0.0000 C   0  0  0  0  0  0  0  0  0  0  0  0
  -11.0669    0.9023    0.0000 C   0  0  0  0  0  0  0  0  0  0  0  0
  -12.1816    1.9060    0.0000 C   0  0  0  0  0  0  0  0  0  0  0  0
   -9.6403    1.3658    0.0000 C   0  0  0  0  0  0  0  0  0  0  0  0
   -7.0990    0.8256    0.0000 C   0  0  0  0  0  0  0  0  0  0  0  0
   -6.2961   -1.6453    0.0000 O   0  0  0  0  0  0  0  0  0  0  0  0
   -5.9843   -0.1781    0.0000 C   0  0  0  0  0  0  0  0  0  0  0  0
   -6.7871    2.2929    0.0000 C   0  0  0  0  0  0  0  0  0  0  0  0
   -9.3691    2.9847    0.0000 C   0  0  0  0  0  0  0  0  0  0  0  0
   -7.9018    3.2966    0.0000 C   0  0  0  0  0  0  0  0  0  0  0  0
   -7.7450    4.7883    0.0000 C   0  0  0  0  0  0  0  0  0  0  0  0
   -9.1154    5.3984    0.0000 C   0  0  0  0  0  0  0  0  0  0  0  0
   -9.2721    6.8902    0.0000 C   0  0  0  0  0  0  0  0  0  0  0  0
   -8.0586    7.7719    0.0000 C   0  0  0  0  0  0  0  0  0  0  0  0
   -6.6883    7.1618    0.0000 C   0  0  0  0  0  0  0  0  0  0  0  0
   -6.5315    5.6700    0.0000 C   0  0  0  0  0  0  0  0  0  0  0  0
   -4.2458    1.7527    0.0000 C   0  0  0  0  0  0  0  0  0  0  0  0
   -2.5074    3.6834    0.0000 O   0  0  0  0  0  0  0  0  0  0  0  0
   -2.8192    2.2162    0.0000 C   0  0  0  0  0  0  0  0  0  0  0  0
   -5.3605    2.7564    0.0000 C   0  0  0  0  0  0  0  0  0  0  0  0
   -5.0487    4.2236    0.0000 C   0  0  0  0  0  0  0  0  0  0  0  0
   -5.8035    5.3428    0.0000 C   0  0  0  0  0  0  0  0  0  0  0  0
   -3.6221    4.6871    0.0000 C   0  0  0  0  0  0  0  0  0  0  0  0
   -0.2779    1.6760    0.0000 C   0  0  0  0  0  0  0  0  0  0  0  0
   -1.0808    4.1470    0.0000 O   0  0  0  0  0  0  0  0  0  0  0  0
    0.0339    3.1433    0.0000 C   0  0  0  0  0  0  0  0  0  0  0  0
    0.8368    0.6723    0.0000 C   0  0  0  0  0  0  0  0  0  0  0  0
    2.2634    1.1359    0.0000 C   0  0  0  0  0  0  0  0  0  0  0  0
    3.4769    0.2542    0.0000 C   0  0  0  0  0  0  0  0  0  0  0  0
    4.6904    1.1359    0.0000 C   0  0  0  0  0  0  0  0  0  0  0  0
    6.0607    0.5258    0.0000 C   0  0  0  0  0  0  0  0  0  0  0  0
    6.2175   -0.9660    0.0000 C   0  0  0  0  0  0  0  0  0  0  0  0
    5.0040   -1.8477    0.0000 C   0  0  0  0  0  0  0  0  0  0  0  0
    3.6337   -1.2376    0.0000 C   0  0  0  0  0  0  0  0  0  0  0  0
   -5.4469  -16.3941    0.0000 C   0  0  0  0  0  0  0  0  0  0  0  0
   -6.5616  -15.3904    0.0000 O   0  0  0  0  0  0  0  0  0  0  0  0
    1.4605    3.6068    0.0000 N   0  0  0  0  0  0  0  0  0  0  0  0
    2.7269    2.5625    0.0000 C   0  0  0  0  0  0  0  0  0  0  0  0
    1.7724    5.0740    0.0000 C   0  0  0  0  0  0  0  0  0  0  0  0
    3.1990    5.5375    0.0000 C   0  0  0  0  0  0  0  0  0  0  0  0
    3.5108    7.0048    0.0000 O   0  0  0  0  0  0  0  0  0  0  0  0
   -4.0203  -15.9306    0.0000 N   0  0  0  0  0  0  0  0  0  0  0  0
   -1.1672  -15.0036    0.0000 N   0  0  0  0  0  0  0  0  0  0  0  0
    1.9979  -12.6093    0.0000 N   0  0  0  0  0  0  0  0  0  0  0  0
    4.8510  -11.6822    0.0000 N   0  0  0  0  0  0  0  0  0  0  0  0
    5.4748   -8.7478    0.0000 N   0  0  0  0  0  0  0  0  0  0  0  0
    3.2453   -6.7404    0.0000 N   0  0  0  0  0  0  0  0  0  0  0  0
    0.3922   -7.6675    0.0000 N   0  0  0  0  0  0  0  0  0  0  0  0
   -1.8373   -5.6601    0.0000 N   0  0  0  0  0  0  0  0  0  0  0  0
    1.2135   -2.7256    0.0000 N   0  0  0  0  0  0  0  0  0  0  0  0
   -4.6904   -6.5871    0.0000 N   0  0  0  0  0  0  0  0  0  0  0  0
   -8.6583   -6.5105    0.0000 N   0  0  0  0  0  0  0  0  0  0  0  0
  -13.5279   -2.8647    0.0000 N   0  0  0  0  0  0  0  0  0  0  0  0
  -10.5759   -3.0359    0.0000 N   0  0  0  0  0  0  0  0  0  0  0  0
   -8.5256    0.3621    0.0000 N   0  0  0  0  0  0  0  0  0  0  0  0
  -10.1191    4.2837    0.0000 N   0  0  0  0  0  0  0  0  0  0  0  0
   -4.5577    0.2855    0.0000 N   0  0  0  0  0  0  0  0  0  0  0  0
   -1.7045    1.2125    0.0000 N   0  0  0  0  0  0  0  0  0  0  0  0
    4.2269    2.5625    0.0000 N   0  0  0  0  0  0  0  0  0  0  0  0
 12 11  2  0
 10 13  1  6
 13 14  1  0
 14 15  1  0
 14 16  1  0
 17 20  1  0
 20 18  2  0
 17 19  1  6
 21 23  1  0
 23 22  2  0
 21 24  1  0
 24 25  1  0
 24 26  1  0
 27 29  1  0
 29 28  2  0
 27 30  1  0
 30 31  1  0
 30 32  1  0
 33 35  1  0
 35 34  2  0
 33 36  1  0
 36 37  1  0
 36 38  1  0
 39 41  1  0
 41 40  2  0
 39 42  1  6
 42 44  1  0
 43 44  2  0
 44 45  1  0
 45 46  2  0
 46 47  1  0
 47 48  2  0
 48 49  1  0
 49 50  2  0
 50 45  1  0
 51 53  1  0
 53 52  2  0
 51 54  1  6
 54 55  1  0
 55 56  1  0
 55 57  1  0
 58 60  1  0
 60 59  2  0
 58 61  1  1
 61 63  1  0
 62 63  2  0
 63 64  1  0
 64 65  2  0
 65 66  1  0
 66 67  2  0
 67 68  1  0
 68 69  2  0
 69 64  1  0
 70 72  1  0
 72 71  2  0
 70 73  1  6
 73 74  1  0
 74 75  1  0
 74 76  1  0
 77 79  1  0
 79 78  2  0
 77 80  1  1
 80 82  1  0
 81 82  2  0
 82 83  1  0
 83 84  2  0
 84 85  1  0
 85 86  2  0
 86 87  1  0
 87 88  2  0
 88 83  1  0
 89 91  1  0
 91 90  2  0
 89 92  1  6
 92 93  1  0
 93 94  1  0
 93 95  1  0
 96 98  1  0
 98 97  2  0
 96 99  1  6
 99100  1  0
110100  2  0
100101  1  0
101102  1  0
102103  2  0
103104  1  0
104105  2  0
105106  1  0
106101  2  0
107108  2  0
 98109  1  0
109111  1  0
111112  1  0
112113  1  0
  1  3  1  0
  3  2  2  0
  1  4  1  0
  4  5  1  0
  4  6  1  0
  7  9  1  0
  9  8  2  0
 10 12  1  0
122 43  1  0
 46122  1  0
  3115  1  0
115  7  1  0
123 51  1  0
 41123  1  0
 21118  1  1
 20118  1  0
124 58  1  0
 53124  1  0
114107  1  0
  1114  1  6
125 62  1  0
 65125  1  0
 27119  1  6
 23119  1  0
126 70  1  0
 60126  1  0
  9116  1  0
116 10  1  0
127 77  1  0
 72127  1  0
 33120  1  6
 29120  1  0
128 81  1  0
 84128  1  0
129 89  1  0
 79129  1  0
121 39  1  0
 35121  1  0
130 96  1  0
 91130  1  0
117 17  1  0
 12117  1  0
131110  1  0
102131  1  0
M  END
>  <DATABASE_ID>  (3) 
DB00027

>  <DATABASE_NAME>  (3) 
drugbank

>  <SMILES>  (3) 
CC(C)C[C@@H](NC(=O)CNC(=O)[C@@H](NC=O)C(C)C)C(=O)N[C@@H](C)C(=O)N[C@H](C(C)C)C(=O)N[C@@H](C(C)C)C(=O)N[C@H](C(C)C)C(=O)N[C@@H](CC1=CNC2=C1C=CC=C2)C(=O)N[C@H](CC(C)C)C(=O)N[C@@H](CC1=CNC2=C1C=CC=C2)C(=O)N[C@H](CC(C)C)C(=O)N[C@@H](CC1=CNC2=C1C=CC=C2)C(=O)N[C@H](CC(C)C)C(=O)N[C@@H](CC1=CNC2=C1C=CC=C2)C(=O)NCCO

>  <INCHI_IDENTIFIER>  (3) 
InChI=1S/C96H135N19O16/c1-50(2)36-71(105-79(118)48-102-93(128)80(54(9)10)103-49-117)86(121)104-58(17)84(119)113-82(56(13)14)95(130)115-83(57(15)16)96(131)114-81(55(11)12)94(129)112-78(43-62-47-101-70-33-25-21-29-66(62)70)92(127)108-74(39-53(7)8)89(124)111-77(42-61-46-100-69-32-24-20-28-65(61)69)91(126)107-73(38-52(5)6)88(123)110-76(41-60-45-99-68-31-23-19-27-64(60)68)90(125)106-72(37-51(3)4)87(122)109-75(85(120)97-34-35-116)40-59-44-98-67-30-22-18-26-63(59)67/h18-33,44-47,49-58,71-78,80-83,98-101,116H,34-43,48H2,1-17H3,(H,97,120)(H,102,128)(H,103,117)(H,104,121)(H,105,118)(H,106,125)(H,107,126)(H,108,127)(H,109,122)(H,110,123)(H,111,124)(H,112,129)(H,113,119)(H,114,131)(H,115,130)/t58-,71+,72+,73+,74+,75-,76-,77-,78-,80-,81+,82+,83-/m0/s1

>  <INCHI_KEY>  (3) 
NDAYQJDHGXTBJL-MWWSRJDJSA-N

>  <FORMULA>  (3) 
C96H135N19O16

>  <MOLECULAR_WEIGHT>  (3) 
1811.253

>  <EXACT_MASS>  (3) 
1810.033419343

>  <JCHEM_ACCEPTOR_COUNT>  (3) 
16

>  <JCHEM_ATOM_COUNT>  (3) 
266

>  <JCHEM_AVERAGE_POLARIZABILITY>  (3) 
194.73112146160696

>  <JCHEM_BIOAVAILABILITY>  (3) 
0

>  <JCHEM_DONOR_COUNT>  (3) 
20

>  <JCHEM_FORMAL_CHARGE>  (3) 
0

>  <JCHEM_GHOSE_FILTER>  (3) 
0

>  <JCHEM_IUPAC>  (3) 
(2R)-N-[(1S)-1-{[(1R)-1-{[(1S)-1-{[(1R)-1-{[(1S)-1-{[(1R)-1-{[(1S)-1-{[(1R)-1-{[(1S)-1-{[(1R)-1-{[(1S)-1-[(2-hydroxyethyl)carbamoyl]-2-(1H-indol-3-yl)ethyl]carbamoyl}-3-methylbutyl]carbamoyl}-2-(1H-indol-3-yl)ethyl]carbamoyl}-3-methylbutyl]carbamoyl}-2-(1H-indol-3-yl)ethyl]carbamoyl}-3-methylbutyl]carbamoyl}-2-(1H-indol-3-yl)ethyl]carbamoyl}-2-methylpropyl]carbamoyl}-2-methylpropyl]carbamoyl}-2-methylpropyl]carbamoyl}ethyl]-2-{2-[(2S)-2-formamido-3-methylbutanamido]acetamido}-4-methylpentanamide

>  <ALOGPS_LOGP>  (3) 
4.38

>  <JCHEM_LOGP>  (3) 
5.961331766000006

>  <ALOGPS_LOGS>  (3) 
-5.67

>  <JCHEM_MDDR_LIKE_RULE>  (3) 
1

>  <JCHEM_NUMBER_OF_RINGS>  (3) 
8

>  <JCHEM_PHYSIOLOGICAL_CHARGE>  (3) 
0

>  <JCHEM_PKA>  (3) 
11.945820150825762

>  <JCHEM_PKA_STRONGEST_ACIDIC>  (3) 
11.560887729305339

>  <JCHEM_POLAR_SURFACE_AREA>  (3) 
519.8899999999996

>  <JCHEM_REFRACTIVITY>  (3) 
492.3329000000001

>  <JCHEM_ROTATABLE_BOND_COUNT>  (3) 
50

>  <JCHEM_RULE_OF_FIVE>  (3) 
0

>  <ALOGPS_SOLUBILITY>  (3) 
3.90e-03 g/l

>  <JCHEM_TRADITIONAL_IUPAC>  (3) 
(2R)-N-[(1S)-1-{[(1R)-1-{[(1S)-1-{[(1R)-1-{[(1S)-1-{[(1R)-1-{[(1S)-1-{[(1R)-1-{[(1S)-1-{[(1R)-1-{[(1S)-1-[(2-hydroxyethyl)carbamoyl]-2-(1H-indol-3-yl)ethyl]carbamoyl}-3-methylbutyl]carbamoyl}-2-(1H-indol-3-yl)ethyl]carbamoyl}-3-methylbutyl]carbamoyl}-2-(1H-indol-3-yl)ethyl]carbamoyl}-3-methylbutyl]carbamoyl}-2-(1H-indol-3-yl)ethyl]carbamoyl}-2-methylpropyl]carbamoyl}-2-methylpropyl]carbamoyl}-2-methylpropyl]carbamoyl}ethyl]-2-{2-[(2S)-2-formamido-3-methylbutanamido]acetamido}-4-methylpentanamide

>  <JCHEM_VEBER_RULE>  (3) 
0

>  <DRUGBANK_ID>  (3) 
DB00027

>  <SECONDARY_ACCESSION_NUMBERS>  (3) 
BTD00036; BIOD00036

>  <DRUG_GROUPS>  (3) 
approved

>  <GENERIC_NAME>  (3) 
Gramicidin D

>  <SYNONYMS>  (3) 
Bacillus brevis gramicidin D; Gramicidin; Gramicidin A; Gramicidin B; Gramicidin C; Gramicidina; Gramicidine

>  <PRODUCTS>  (3) 
Antibiotic Cream; Antibiotic Cream Plus Pain Relief; Antibiotic Cream Plus Pain Relief for Kids; Antibiotic Cream for Kids; Antibiotic Drops; Antibiotic Ear Drops; Antibiotic Eye Drops; Antibiotic Plus Pain Relief Cream; Complete Antibiotic Ointment; Kenacomb Cream; Kenacomb Mild Cream; Kenacomb Mild Ointment; Kenacomb Ointment; Kenacomb Ont; Lidecomb Cream; Lidosporin Cream; Mecomb Crm 0.1%; Neocidin; Neomycin and Polymyxin B Sulfates and Gramicidin; Neosporin; Neosporin Antibiotic Cream; Neosporin Eye-ear Solution; Odan-spor; Optimyxin; Optimyxin Plus Oto-opht Gtte; Original Antibiotic Cream; Polycidin Eye, Ear Drops; Polysporin Antibiotic Burn Cream; Polysporin Antibiotic Cream; Polysporin Burn Formula Cream; Polysporin Cold Sore Ointment; Polysporin Complete; Polysporin Cream; Polysporin Eye and Ear Drops Sterile; Polysporin Plus Pain Relief; Polysporin Triple Antibiotic Ointment; Polysporin for Kids; Polysporin for Stitches; Polytopic Cream; Sandoz Opticort; Sofracort Ear/eye Ointment; Sofracort Eye/ear Drops; Sofracort Sterile Ear/eye Drops; Sofracort Sterile Ear/eye Ointment; Soframycin Nasal Spray; Soframycin Ointment; Soframycin Skin Ointment; Teva-triacomb; Theraderm Cream; Triple Antibiotic Ointment; Viaderm Kc Crm; Viaderm Kc Ont

>  <INTERNATIONAL_BRANDS>  (3) 
Sofradex

$$$$
Desmopressin
     RDKit          3D

 74 77  0  0  1  0  0  0  0  0999 V2000
    8.7203   -7.4340    0.7112 N   0  0  0  0  0  0  0  0  0  0  0  0
    9.0453   -6.0654    0.5542 C   0  0  0  0  0  0  0  0  0  0  0  0
    9.0302   -5.1827    1.7293 C   0  0  0  0  0  0  0  0  0  0  0  0
    9.3862   -3.8158    1.4068 N   0  0  0  0  0  0  0  0  0  0  0  0
    8.6504   -3.0407    0.4861 C   0  0  0  0  0  0  0  0  0  0  0  0
    9.0405   -1.6685    0.1902 C   0  0  2  0  0  0  0  0  0  0  0  0
    8.1834   -1.0332   -0.7885 N   0  0  0  0  0  0  0  0  0  0  0  0
    6.7910   -0.7591   -0.4869 C   0  0  0  0  0  0  0  0  0  0  0  0
    6.4773   -1.1380    0.6946 O   0  0  0  0  0  0  0  0  0  0  0  0
    9.3418   -5.6187   -0.5731 O   0  0  0  0  0  0  0  0  0  0  0  0
    7.6556   -3.5462   -0.0762 O   0  0  0  0  0  0  0  0  0  0  0  0
   10.4880   -1.4973   -0.0941 C   0  0  0  0  0  0  0  0  0  0  0  0
   10.8854   -0.0964   -0.3918 C   0  0  0  0  0  0  0  0  0  0  0  0
   10.1962    0.5069   -1.5902 C   0  0  0  0  0  0  0  0  0  0  0  0
   10.6376    1.8733   -1.8161 N   0  0  0  0  0  0  0  0  0  0  0  0
    5.9366   -0.1458   -1.4295 C   0  0  2  0  0  0  0  0  0  0  0  0
    6.4138    0.8107   -2.4288 C   0  0  0  0  0  0  0  0  0  0  0  0
    4.6067    0.1963   -1.1825 N   0  0  0  0  0  0  0  0  0  0  0  0
    5.1219    1.1447   -3.1962 C   0  0  0  0  0  0  0  0  0  0  0  0
    4.0267    0.2932   -2.5404 C   0  0  0  0  0  0  0  0  0  0  0  0
    3.8985    0.4512   -0.0124 C   0  0  0  0  0  0  0  0  0  0  0  0
    2.4314    0.7711    0.0646 C   0  0  1  0  0  0  0  0  0  0  0  0
    2.0035    1.0591    1.3719 N   0  0  0  0  0  0  0  0  0  0  0  0
    1.1021    1.9836    1.8672 C   0  0  0  0  0  0  0  0  0  0  0  0
   -0.3721    1.7875    1.5818 C   0  0  1  0  0  0  0  0  0  0  0  0
   -0.7162    0.5716    2.3109 N   0  0  0  0  0  0  0  0  0  0  0  0
    4.4831    0.4267    1.1154 O   0  0  0  0  0  0  0  0  0  0  0  0
    2.1300    1.8560   -0.9039 C   0  0  0  0  0  0  0  0  0  0  0  0
    1.2383    1.1644   -2.3180 S   0  0  0  0  0  0  0  0  0  0  0  0
   -0.7808    0.8249   -1.7502 S   0  0  0  0  0  0  0  0  0  0  0  0
    1.3923    3.0197    2.5663 O   0  0  0  0  0  0  0  0  0  0  0  0
   -1.1818    2.9632    2.0885 C   0  0  0  0  0  0  0  0  0  0  0  0
   -0.7180    4.1864    1.4058 C   0  0  0  0  0  0  0  0  0  0  0  0
   -1.2226    5.2887    1.7607 O   0  0  0  0  0  0  0  0  0  0  0  0
    0.2503    4.1943    0.3836 N   0  0  0  0  0  0  0  0  0  0  0  0
   -1.0793   -0.6020    1.6132 C   0  0  0  0  0  0  0  0  0  0  0  0
   -2.4040   -0.6310    0.9754 C   0  0  2  0  0  0  0  0  0  0  0  0
   -0.3225   -1.6318    1.5107 O   0  0  0  0  0  0  0  0  0  0  0  0
   -3.4305   -0.0430    1.8443 C   0  0  0  0  0  0  0  0  0  0  0  0
   -3.6266   -0.6580    3.1716 C   0  0  0  0  0  0  0  0  0  0  0  0
   -4.0402   -2.0549    3.1011 C   0  0  0  0  0  0  0  0  0  0  0  0
   -4.1538   -2.8805    4.2819 N   0  0  0  0  0  0  0  0  0  0  0  0
   -4.3163   -2.6011    2.0213 O   0  0  0  0  0  0  0  0  0  0  0  0
   -2.6710   -1.7679    0.2032 N   0  0  0  0  0  0  0  0  0  0  0  0
   -7.0124   -2.7469   -1.1328 C   0  0  0  0  0  0  0  0  0  0  0  0
   -7.7084   -2.7243    0.0437 C   0  0  0  0  0  0  0  0  0  0  0  0
   -5.5757   -2.9893   -1.1513 C   0  0  0  0  0  0  0  0  0  0  0  0
   -4.8269   -1.6707   -1.0351 C   0  0  1  0  0  0  0  0  0  0  0  0
   -3.3525   -1.9085   -1.0168 C   0  0  0  0  0  0  0  0  0  0  0  0
   -9.0167   -2.3174   -2.3139 C   0  0  0  0  0  0  0  0  0  0  0  0
   -9.7081   -2.2950   -1.1421 C   0  0  0  0  0  0  0  0  0  0  0  0
   -7.6714   -2.5421   -2.3226 C   0  0  0  0  0  0  0  0  0  0  0  0
   -9.0669   -2.4980    0.0587 C   0  0  0  0  0  0  0  0  0  0  0  0
   -5.1715    2.4418   -0.4722 N   0  0  0  0  0  0  0  0  0  0  0  0
   -3.8890    2.8373   -0.9320 C   0  0  0  0  0  0  0  0  0  0  0  0
   -3.1852    2.0145   -1.9169 C   0  0  0  0  0  0  0  0  0  0  0  0
   -1.7201    2.3517   -2.0429 C   0  0  0  0  0  0  0  0  0  0  0  0
   -5.6444    0.5187   -1.9144 C   0  0  0  0  0  0  0  0  0  0  0  0
   -6.1013    1.1715   -2.8771 O   0  0  0  0  0  0  0  0  0  0  0  0
   -5.5680    1.0752   -0.5664 C   0  0  2  0  0  0  0  0  0  0  0  0
   -5.1889   -0.8035   -2.1488 N   0  0  0  0  0  0  0  0  0  0  0  0
   -2.8413   -2.2209   -2.1212 O   0  0  0  0  0  0  0  0  0  0  0  0
   -6.6534    0.6475    0.3597 C   0  0  0  0  0  0  0  0  0  0  0  0
   -8.0982    2.5048    0.9752 C   0  0  0  0  0  0  0  0  0  0  0  0
   -7.9213    1.3647    0.2179 C   0  0  0  0  0  0  0  0  0  0  0  0
   -9.2364    3.2736    0.9409 C   0  0  0  0  0  0  0  0  0  0  0  0
  -10.2466    2.8900    0.1142 C   0  0  0  0  0  0  0  0  0  0  0  0
   -8.9623    1.0058   -0.6069 C   0  0  0  0  0  0  0  0  0  0  0  0
  -10.1163    1.7536   -0.6653 C   0  0  0  0  0  0  0  0  0  0  0  0
   -3.3460    3.8854   -0.5060 O   0  0  0  0  0  0  0  0  0  0  0  0
  -11.4276    3.6575    0.0564 O   0  0  0  0  0  0  0  0  0  0  0  0
   10.3149    2.9244   -0.9095 C   0  0  0  0  0  0  0  0  0  0  0  0
    9.4804    2.7213    0.0375 N   0  0  0  0  0  0  0  0  0  0  0  0
   10.9328    4.2156   -1.0654 N   0  0  0  0  0  0  0  0  0  0  0  0
  1  2  1  0
  2  3  1  0
  2 10  2  0
  3  4  1  0
  4  5  1  0
  5  6  1  0
  5 11  2  0
  6  7  1  0
  6 12  1  1
  7  8  1  0
  8  9  2  0
 16  8  1  1
 12 13  1  0
 13 14  1  0
 14 15  1  0
 15 72  1  0
 16 17  1  0
 16 18  1  0
 17 19  1  0
 18 20  1  0
 18 21  1  0
 19 20  1  0
 22 21  1  1
 21 27  2  0
 22 23  1  0
 22 28  1  0
 23 24  1  0
 24 25  1  0
 24 31  2  0
 25 26  1  0
 25 32  1  1
 26 36  1  0
 28 29  1  0
 29 30  1  0
 30 57  1  0
 32 33  1  0
 33 34  2  0
 33 35  1  0
 36 37  1  0
 36 38  2  0
 37 39  1  1
 37 44  1  0
 39 40  1  0
 40 41  1  0
 41 42  1  0
 41 43  2  0
 44 49  1  0
 45 47  1  0
 45 52  1  0
 45 46  2  0
 46 53  1  0
 48 47  1  6
 48 61  1  0
 48 49  1  0
 49 62  2  0
 50 51  1  0
 50 52  2  0
 51 53  2  0
 54 55  1  0
 54 60  1  0
 55 56  1  0
 55 70  2  0
 56 57  1  0
 58 59  2  0
 58 60  1  0
 58 61  1  0
 60 63  1  6
 63 65  1  0
 64 66  2  0
 64 65  1  0
 65 68  2  0
 66 67  1  0
 67 69  2  0
 67 71  1  0
 68 69  1  0
 72 73  2  3
 72 74  1  0
M  END
>  <DATABASE_ID>  (4) 
DB00035

>  <DATABASE_NAME>  (4) 
drugbank

>  <SMILES>  (4) 
NC(=O)CC[C@@H]1NC(=O)[C@H](CC2=CC=CC=C2)NC(=O)[C@H](CC2=CC=C(O)C=C2)NC(=O)CCSSC[C@H](NC(=O)[C@H](CC(N)=O)NC1=O)C(=O)N1CCC[C@H]1C(=O)N[C@@H](CCCNC(N)=N)C(=O)NCC(N)=O

>  <INCHI_IDENTIFIER>  (4) 
InChI=1S/C46H64N14O12S2/c47-35(62)15-14-29-40(67)58-32(22-36(48)63)43(70)59-33(45(72)60-18-5-9-34(60)44(71)56-28(8-4-17-52-46(50)51)39(66)53-23-37(49)64)24-74-73-19-16-38(65)54-30(21-26-10-12-27(61)13-11-26)41(68)57-31(42(69)55-29)20-25-6-2-1-3-7-25/h1-3,6-7,10-13,28-34,61H,4-5,8-9,14-24H2,(H2,47,62)(H2,48,63)(H2,49,64)(H,53,66)(H,54,65)(H,55,69)(H,56,71)(H,57,68)(H,58,67)(H,59,70)(H4,50,51,52)/t28-,29-,30-,31-,32-,33-,34-/m0/s1

>  <INCHI_KEY>  (4) 
NFLWUMRGJYTJIN-NXBWRCJVSA-N

>  <FORMULA>  (4) 
C46H64N14O12S2

>  <MOLECULAR_WEIGHT>  (4) 
1069.217

>  <EXACT_MASS>  (4) 
1068.426954962

>  <JCHEM_ACCEPTOR_COUNT>  (4) 
15

>  <JCHEM_ATOM_COUNT>  (4) 
138

>  <JCHEM_AVERAGE_POLARIZABILITY>  (4) 
104.70207783009394

>  <JCHEM_BIOAVAILABILITY>  (4) 
0

>  <JCHEM_DONOR_COUNT>  (4) 
14

>  <JCHEM_FORMAL_CHARGE>  (4) 
0

>  <JCHEM_GHOSE_FILTER>  (4) 
0

>  <JCHEM_IUPAC>  (4) 
(2S)-2-{[(2S)-1-[(4R,7S,10S,13S,16S)-13-benzyl-10-(2-carbamoylethyl)-7-(carbamoylmethyl)-16-[(4-hydroxyphenyl)methyl]-6,9,12,15,18-pentaoxo-1,2-dithia-5,8,11,14,17-pentaazacycloicosane-4-carbonyl]pyrrolidin-2-yl]formamido}-5-carbamimidamido-N-(carbamoylmethyl)pentanamide

>  <ALOGPS_LOGP>  (4) 
-1.04

>  <JCHEM_LOGP>  (4) 
-6.128255121522684

>  <ALOGPS_LOGS>  (4) 
-3.99

>  <JCHEM_MDDR_LIKE_RULE>  (4) 
1

>  <JCHEM_NUMBER_OF_RINGS>  (4) 
4

>  <JCHEM_PHYSIOLOGICAL_CHARGE>  (4) 
1

>  <JCHEM_PKA>  (4) 
11.344258946590854

>  <JCHEM_PKA_STRONGEST_ACIDIC>  (4) 
9.496980961426173

>  <JCHEM_PKA_STRONGEST_BASIC>  (4) 
11.771940185101531

>  <JCHEM_POLAR_SURFACE_AREA>  (4) 
435.40999999999985

>  <JCHEM_REFRACTIVITY>  (4) 
279.7799

>  <JCHEM_ROTATABLE_BOND_COUNT>  (4) 
19

>  <JCHEM_RULE_OF_FIVE>  (4) 
0

>  <ALOGPS_SOLUBILITY>  (4) 
1.10e-01 g/l

>  <JCHEM_TRADITIONAL_IUPAC>  (4) 
desmopressin

>  <JCHEM_VEBER_RULE>  (4) 
0

>  <DRUGBANK_ID>  (4) 
DB00035

>  <SECONDARY_ACCESSION_NUMBERS>  (4) 
BTD00112; BTD00061; BIOD00112; BIOD00061

>  <DRUG_GROUPS>  (4) 
approved

>  <GENERIC_NAME>  (4) 
Desmopressin

>  <SYNONYMS>  (4) 
1-(3-mercaptopropionic acid)-8-D-arginine-vasopressin; 1-deamino-8-D-arginine vasopressin; 1-desamino-8-D-arginine vasopressin; dDAVP; Desmopresina; Desmopressin; Desmopressine; Desmopressinum

>  <PRODUCTS>  (4) 
DDAVP Rhinal Tube; Ddavp; Ddavp Inj 4mcg/ml; Ddavp Melt; Ddavp Rhinyle; Ddavp Spray; Ddavp Tablets 0.1mg; Ddavp Tablets 0.2mg; Desmopressin; Desmopressin Acetate; Desmopressin Spray; Desmopressin Tablets; Desmopressin acetate; Minirin; Nocdurna; Noctiva; Nu-desmopressin Spray; Octostim Liq Inj. 15mcg/ml; Octostim Spray; PMS-desmopressin; Stimate; Teva-desmopressin

>  <INTERNATIONAL_BRANDS>  (4) 
Adiuretin; DesmoMelt

>  <SALTS>  (4) 
Desmopressin acetate; Desmopressin acetate anhydrous

$$$$
Cetrorelix
     RDKit          3D

102107  0  0  1  0  0  0  0  0999 V2000
  -14.4395    2.9242   -0.0133 C   0  0  0  0  0  0  0  0  0  0  0  0
  -14.3816    1.6608    0.5291 C   0  0  0  0  0  0  0  0  0  0  0  0
  -15.2270    3.8629    0.5644 C   0  0  0  0  0  0  0  0  0  0  0  0
  -15.1320    1.3700    1.6575 C   0  0  0  0  0  0  0  0  0  0  0  0
  -15.9899    3.5914    1.6996 C   0  0  0  0  0  0  0  0  0  0  0  0
  -15.9384    2.3281    2.2505 C   0  0  0  0  0  0  0  0  0  0  0  0
  -13.6875    3.2346   -1.1486 C   0  0  0  0  0  0  0  0  0  0  0  0
  -12.8847    2.3056   -1.7457 C   0  0  0  0  0  0  0  0  0  0  0  0
  -13.5770    0.7538   -0.0800 C   0  0  0  0  0  0  0  0  0  0  0  0
  -12.8376    1.0249   -1.1833 C   0  0  0  0  0  0  0  0  0  0  0  0
  -10.6688    3.0267   -2.4830 C   0  0  2  0  0  0  0  0  0  0  0  0
  -10.8382    4.2913   -1.8378 N   0  0  0  0  0  0  0  0  0  0  0  0
  -12.0444    2.5112   -2.9412 C   0  0  0  0  0  0  0  0  0  0  0  0
   -9.7554    0.6998   -1.8514 N   0  0  0  0  0  0  0  0  0  0  0  0
  -10.0540    2.0607   -1.5477 C   0  0  0  0  0  0  0  0  0  0  0  0
   -9.1723   -0.1447   -0.8143 C   0  0  1  0  0  0  0  0  0  0  0  0
   -7.7183   -0.0627   -0.7019 C   0  0  0  0  0  0  0  0  0  0  0  0
   -6.9716    0.6742   -1.4259 O   0  0  0  0  0  0  0  0  0  0  0  0
   -9.9283    0.0759    0.4508 C   0  0  0  0  0  0  0  0  0  0  0  0
   -9.4660   -0.6773    1.6117 C   0  0  0  0  0  0  0  0  0  0  0  0
   -7.0662   -0.8331    0.2584 N   0  0  0  0  0  0  0  0  0  0  0  0
   -9.8484   -1.9390    1.9666 C   0  0  0  0  0  0  0  0  0  0  0  0
   -8.5601   -0.0388    2.4603 C   0  0  0  0  0  0  0  0  0  0  0  0
   -8.0710   -0.6225    3.5860 C   0  0  0  0  0  0  0  0  0  0  0  0
   -9.3587   -2.5535    3.1131 C   0  0  0  0  0  0  0  0  0  0  0  0
   -8.4608   -1.8898    3.9330 C   0  0  0  0  0  0  0  0  0  0  0  0
   -5.8200   -1.0524    0.6797 C   0  0  1  0  0  0  0  0  0  0  0  0
   -5.5686   -2.3051    1.4385 C   0  0  0  0  0  0  0  0  0  0  0  0
   -4.6230   -0.3343    0.3708 C   0  0  0  0  0  0  0  0  0  0  0  0
   -3.3827   -0.7624    0.9138 N   0  0  0  0  0  0  0  0  0  0  0  0
   -5.8619   -3.5506    0.7268 C   0  0  0  0  0  0  0  0  0  0  0  0
   -4.9011   -4.1838   -0.0150 C   0  0  0  0  0  0  0  0  0  0  0  0
   -7.1252   -4.0846    0.8104 C   0  0  0  0  0  0  0  0  0  0  0  0
   -7.3806   -5.2251    0.1550 N   0  0  0  0  0  0  0  0  0  0  0  0
   -5.2052   -5.3547   -0.6740 C   0  0  0  0  0  0  0  0  0  0  0  0
   -6.4716   -5.8623   -0.5712 C   0  0  0  0  0  0  0  0  0  0  0  0
   -2.1585   -0.0903    0.6372 C   0  0  2  0  0  0  0  0  0  0  0  0
   -1.1469   -0.9490    0.0300 C   0  0  0  0  0  0  0  0  0  0  0  0
   -1.5003   -2.1783   -0.1933 O   0  0  0  0  0  0  0  0  0  0  0  0
    0.1830   -0.6177   -0.3584 N   0  0  0  0  0  0  0  0  0  0  0  0
    0.9138   -1.7333   -0.9692 C   0  0  2  0  0  0  0  0  0  0  0  0
    1.0435   -2.8569    0.0648 C   0  0  0  0  0  0  0  0  0  0  0  0
    2.2661   -1.3865   -1.4431 C   0  0  0  0  0  0  0  0  0  0  0  0
    2.7477   -1.8741   -2.6780 N   0  0  0  0  0  0  0  0  0  0  0  0
    1.8257   -2.2820    1.1828 C   0  0  0  0  0  0  0  0  0  0  0  0
   -9.7528    2.4343   -0.3547 O   0  0  0  0  0  0  0  0  0  0  0  0
   -7.8618   -2.6847    5.3691 Cl  0  0  0  0  0  0  0  0  0  0  0  0
   -4.5963    0.6665   -0.3639 O   0  0  0  0  0  0  0  0  0  0  0  0
   -1.6427    0.6449    1.8281 C   0  0  0  0  0  0  0  0  0  0  0  0
   -1.4991   -0.2761    2.8549 O   0  0  0  0  0  0  0  0  0  0  0  0
    3.0060   -0.6582   -0.7543 O   0  0  0  0  0  0  0  0  0  0  0  0
    3.9482   -1.9213    2.3177 C   0  0  0  0  0  0  0  0  0  0  0  0
    3.3351   -1.1232    3.2576 C   0  0  0  0  0  0  0  0  0  0  0  0
    3.1923   -2.4691    1.3242 C   0  0  0  0  0  0  0  0  0  0  0  0
    1.9890   -0.9080    3.1652 C   0  0  0  0  0  0  0  0  0  0  0  0
    1.2573   -1.4784    2.1478 C   0  0  0  0  0  0  0  0  0  0  0  0
    4.0714   -0.5377    4.2942 O   0  0  0  0  0  0  0  0  0  0  0  0
    3.9996   -1.6851   -3.2831 C   0  0  2  0  0  0  0  0  0  0  0  0
    5.1147   -2.1506   -2.4117 C   0  0  0  0  0  0  0  0  0  0  0  0
    4.8978   -2.6779   -1.2890 O   0  0  0  0  0  0  0  0  0  0  0  0
    6.4528   -2.0183   -2.8032 N   0  0  0  0  0  0  0  0  0  0  0  0
    7.5188   -2.4817   -1.8700 C   0  0  2  0  0  0  0  0  0  0  0  0
    6.8322   -3.2603   -0.7319 C   0  0  0  0  0  0  0  0  0  0  0  0
    8.0366   -1.1968   -1.2994 C   0  0  0  0  0  0  0  0  0  0  0  0
    8.5454   -1.1971   -0.0056 N   0  0  0  0  0  0  0  0  0  0  0  0
    9.0698   -0.2337    0.8289 C   0  0  2  0  0  0  0  0  0  0  0  0
    9.6401    1.0029    0.3174 C   0  0  0  0  0  0  0  0  0  0  0  0
    9.7327    1.3324   -0.9057 O   0  0  0  0  0  0  0  0  0  0  0  0
   10.1441    1.9262    1.3112 N   0  0  0  0  0  0  0  0  0  0  0  0
   12.1962    1.7671   -0.2685 O   0  0  0  0  0  0  0  0  0  0  0  0
   11.9781    2.9446    0.1753 C   0  0  0  0  0  0  0  0  0  0  0  0
    7.9560   -3.7135    0.1769 C   0  0  0  0  0  0  0  0  0  0  0  0
    4.3114   -0.6258   -4.1895 C   0  0  0  0  0  0  0  0  0  0  0  0
    4.2474    0.7470   -3.7496 C   0  0  0  0  0  0  0  0  0  0  0  0
    2.9304    1.2366   -3.2832 C   0  0  0  0  0  0  0  0  0  0  0  0
    3.0298    2.6466   -2.8717 N   0  0  0  0  0  0  0  0  0  0  0  0
    1.9549    3.4180   -2.3638 C   0  0  0  0  0  0  0  0  0  0  0  0
    0.8357    2.8749   -2.2481 O   0  0  0  0  0  0  0  0  0  0  0  0
    2.1803    4.8057   -1.9943 N   0  0  0  0  0  0  0  0  0  0  0  0
    7.9972   -0.1642   -1.9716 O   0  0  0  0  0  0  0  0  0  0  0  0
    9.8279   -0.7608    2.0274 C   0  0  0  0  0  0  0  0  0  0  0  0
   11.0140   -1.6035    1.6086 C   0  0  0  0  0  0  0  0  0  0  0  0
   11.7972   -2.1513    2.7599 C   0  0  0  0  0  0  0  0  0  0  0  0
   12.8912   -2.9271    2.2438 N   0  0  0  0  0  0  0  0  0  0  0  0
   14.0065   -2.3815    1.5528 C   0  0  0  0  0  0  0  0  0  0  0  0
   14.2061   -1.1114    1.6277 N   0  0  0  0  0  0  0  0  0  0  0  0
   14.8891   -3.1919    0.7943 N   0  0  0  0  0  0  0  0  0  0  0  0
   10.7804    3.1824    1.0681 C   0  0  2  0  0  0  0  0  0  0  0  0
   10.0575    1.7036    2.7256 C   0  0  0  0  0  0  0  0  0  0  0  0
   11.2154    3.7733    2.3572 C   0  0  0  0  0  0  0  0  0  0  0  0
   10.4311    3.0164    3.4002 C   0  0  0  0  0  0  0  0  0  0  0  0
   12.8785    3.9665   -0.1959 N   0  0  0  0  0  0  0  0  0  0  0  0
   14.0023    3.6703   -1.0554 C   0  0  1  0  0  0  0  0  0  0  0  0
   14.8418    2.6286   -0.4623 C   0  0  0  0  0  0  0  0  0  0  0  0
   13.5532    3.3122   -2.4449 C   0  0  0  0  0  0  0  0  0  0  0  0
   14.5679    2.1387    0.6510 O   0  0  0  0  0  0  0  0  0  0  0  0
   15.9870    2.1587   -1.1603 N   0  0  0  0  0  0  0  0  0  0  0  0
    8.8682   -4.5864   -0.6393 C   0  0  0  0  0  0  0  0  0  0  0  0
    7.4384   -4.4930    1.3583 C   0  0  0  0  0  0  0  0  0  0  0  0
  -11.2261    5.4858   -2.5064 C   0  0  0  0  0  0  0  0  0  0  0  0
  -11.4452    5.4507   -3.7603 O   0  0  0  0  0  0  0  0  0  0  0  0
  -11.3867    6.7822   -1.7898 C   0  0  0  0  0  0  0  0  0  0  0  0
  3  1  2  0
  7  1  1  0
  2  1  1  0
  4  2  2  0
  9  2  1  0
  5  3  1  0
  6  4  1  0
  6  5  2  0
  8  7  2  0
 13  8  1  0
 10  8  1  0
 10  9  2  0
 11 13  1  1
 15 11  1  0
 11 12  1  0
100 12  1  0
 15 14  1  0
 16 14  1  0
 46 15  2  0
 16 19  1  1
 17 16  1  0
 21 17  1  0
 18 17  2  0
 20 19  1  0
 23 20  1  0
 22 20  2  0
 27 21  1  0
 25 22  1  0
 24 23  2  0
 26 24  1  0
 26 25  2  0
 47 26  1  0
 29 27  1  0
 27 28  1  1
 31 28  1  0
 30 29  1  0
 48 29  2  0
 37 30  1  0
 33 31  1  0
 32 31  2  0
 35 32  1  0
 34 33  2  0
 36 34  1  0
 36 35  2  0
 38 37  1  0
 37 49  1  1
 40 38  1  0
 39 38  2  0
 41 40  1  0
 43 41  1  0
 41 42  1  6
 45 42  1  0
 44 43  1  0
 51 43  2  0
 58 44  1  0
 56 45  2  0
 54 45  1  0
 50 49  1  0
 54 52  2  0
 53 52  1  0
 55 53  2  0
 57 53  1  0
 56 55  1  0
 59 58  1  0
 58 73  1  6
 61 59  1  0
 60 59  2  0
 62 61  1  0
 64 62  1  0
 62 63  1  6
 72 63  1  0
 65 64  1  0
 80 64  2  0
 66 65  1  0
 67 66  1  0
 66 81  1  6
 69 67  1  0
 68 67  2  0
 88 69  1  0
 89 69  1  0
 71 70  2  0
 88 71  1  6
 92 71  1  0
 98 72  1  0
 72 99  1  0
 74 73  1  0
 75 74  1  0
 76 75  1  0
 77 76  1  0
 78 77  2  0
 79 77  1  0
 82 81  1  0
 83 82  1  0
 84 83  1  0
 85 84  1  0
 86 85  2  0
 87 85  1  0
 90 88  1  0
 91 89  1  0
 91 90  1  0
 93 92  1  0
 94 93  1  0
 93 95  1  6
 96 94  2  0
 97 94  1  0
101100  2  0
102100  1  0
M  END
>  <DATABASE_ID>  (5) 
DB00050

>  <DATABASE_NAME>  (5) 
drugbank

>  <SMILES>  (5) 
CC(C)C[C@H](NC(=O)[C@@H](CCCNC(N)=O)NC(=O)[C@H](CC1=CC=C(O)C=C1)NC(=O)[C@H](CO)NC(=O)[C@@H](CC1=CN=CC=C1)NC(=O)[C@@H](CC1=CC=C(Cl)C=C1)NC(=O)[C@@H](CC1=CC2=CC=CC=C2C=C1)NC(C)=O)C(=O)N[C@@H](CCCNC(N)=N)C(=O)N1CCC[C@H]1C(=O)N[C@H](C)C(N)=O

>  <INCHI_IDENTIFIER>  (5) 
InChI=1S/C70H92ClN17O14/c1-39(2)31-52(61(94)82-51(15-9-28-77-69(73)74)68(101)88-30-10-16-58(88)67(100)79-40(3)59(72)92)83-60(93)50(14-8-29-78-70(75)102)81-63(96)54(34-43-20-25-49(91)26-21-43)86-66(99)57(38-89)87-65(98)56(36-45-11-7-27-76-37-45)85-64(97)55(33-42-18-23-48(71)24-19-42)84-62(95)53(80-41(4)90)35-44-17-22-46-12-5-6-13-47(46)32-44/h5-7,11-13,17-27,32,37,39-40,50-58,89,91H,8-10,14-16,28-31,33-36,38H2,1-4H3,(H2,72,92)(H,79,100)(H,80,90)(H,81,96)(H,82,94)(H,83,93)(H,84,95)(H,85,97)(H,86,99)(H,87,98)(H4,73,74,77)(H3,75,78,102)/t40-,50-,51+,52+,53-,54+,55-,56-,57+,58+/m1/s1

>  <INCHI_KEY>  (5) 
SBNPWPIBESPSIF-MHWMIDJBSA-N

>  <FORMULA>  (5) 
C70H92ClN17O14

>  <MOLECULAR_WEIGHT>  (5) 
1431.038

>  <EXACT_MASS>  (5) 
1429.669818444

>  <JCHEM_ACCEPTOR_COUNT>  (5) 
18

>  <JCHEM_AVERAGE_POLARIZABILITY>  (5) 
148.0903995678307

>  <JCHEM_BIOAVAILABILITY>  (5) 
0

>  <JCHEM_DONOR_COUNT>  (5) 
17

>  <JCHEM_FORMAL_CHARGE>  (5) 
0

>  <JCHEM_GHOSE_FILTER>  (5) 
0

>  <JCHEM_IUPAC>  (5) 
(2S)-N-[(2S)-5-carbamimidamido-1-[(2S)-2-{[(1R)-1-carbamoylethyl]carbamoyl}pyrrolidin-1-yl]-1-oxopentan-2-yl]-2-[(2R)-5-(carbamoylamino)-2-[(2S)-2-[(2S)-2-[(2R)-2-[(2R)-3-(4-chlorophenyl)-2-[(2R)-2-acetamido-3-(naphthalen-2-yl)propanamido]propanamido]-3-(pyridin-3-yl)propanamido]-3-hydroxypropanamido]-3-(4-hydroxyphenyl)propanamido]pentanamido]-4-methylpentanamide

>  <ALOGPS_LOGP>  (5) 
1.33

>  <JCHEM_LOGP>  (5) 
-1.7055381771284417

>  <ALOGPS_LOGS>  (5) 
-5.31

>  <JCHEM_MDDR_LIKE_RULE>  (5) 
1

>  <JCHEM_NUMBER_OF_RINGS>  (5) 
6

>  <JCHEM_PHYSIOLOGICAL_CHARGE>  (5) 
1

>  <JCHEM_PKA>  (5) 
11.590298082972675

>  <JCHEM_PKA_STRONGEST_ACIDIC>  (5) 
9.49145482134492

>  <JCHEM_PKA_STRONGEST_BASIC>  (5) 
11.109391789497042

>  <JCHEM_POLAR_SURFACE_AREA>  (5) 
495.66999999999985

>  <JCHEM_REFRACTIVITY>  (5) 
384.1588000000001

>  <JCHEM_ROTATABLE_BOND_COUNT>  (5) 
38

>  <JCHEM_RULE_OF_FIVE>  (5) 
0

>  <ALOGPS_SOLUBILITY>  (5) 
6.94e-03 g/l

>  <JCHEM_TRADITIONAL_IUPAC>  (5) 
cetrorelix

>  <JCHEM_VEBER_RULE>  (5) 
0

>  <DRUGBANK_ID>  (5) 
DB00050

>  <SECONDARY_ACCESSION_NUMBERS>  (5) 
BTD00115; APRD00686; BIOD00115

>  <DRUG_GROUPS>  (5) 
approved; investigational

>  <GENERIC_NAME>  (5) 
Cetrorelix

>  <SYNONYMS>  (5) 
Cetrorelix; Cetrorelixum

>  <PRODUCTS>  (5) 
Cetrotide

>  <SALTS>  (5) 
Cetrorelix Acetate

$$$$
Daptomycin
     RDKit          3D

115118  0  0  0  0  0  0  0  0999 V2000
    0.0100   -2.4836    1.9774 C   0  0  0  0  0  0  0  0  0  0  0  0
    0.7102   -3.4062    2.4625 O   0  0  0  0  0  0  0  0  0  0  0  0
   -1.3507   -2.8076    1.5207 C   0  0  2  0  0  0  0  0  0  0  0  0
   -2.3366   -2.9672    2.5058 N   0  0  0  0  0  0  0  0  0  0  0  0
   -1.4875   -3.4844    0.2315 C   0  0  0  0  0  0  0  0  0  0  0  0
    0.4873   -1.1984    1.8707 O   0  0  0  0  0  0  0  0  0  0  0  0
   -4.8281   -7.3414    0.3682 C   0  0  0  0  0  0  0  0  0  0  0  0
   -3.4558   -3.8133    2.5626 C   0  0  0  0  0  0  0  0  0  0  0  0
   -5.5468   -7.5200   -0.6338 O   0  0  0  0  0  0  0  0  0  0  0  0
   -4.1059   -6.0620    0.6516 C   0  0  0  0  0  0  0  0  0  0  0  0
   -3.6221   -4.6764    3.4812 O   0  0  0  0  0  0  0  0  0  0  0  0
   -5.0901   -5.0852    1.2015 C   0  0  2  0  0  0  0  0  0  0  0  0
   -4.5295   -3.7524    1.5421 C   0  0  2  0  0  0  0  0  0  0  0  0
   -4.6577   -8.3592    1.3065 O   0  0  0  0  0  0  0  0  0  0  0  0
   -4.2110   -2.9973    0.4034 N   0  0  0  0  0  0  0  0  0  0  0  0
   -6.0155   -5.6620    2.2405 C   0  0  0  0  0  0  0  0  0  0  0  0
   -4.9507   -2.7552   -0.7211 C   0  0  0  0  0  0  0  0  0  0  0  0
   -6.3199   -2.2582   -0.7199 C   0  0  2  0  0  0  0  0  0  0  0  0
   -4.4438   -2.9656   -1.8873 O   0  0  0  0  0  0  0  0  0  0  0  0
   -6.3235   -0.8381   -0.9677 N   0  0  0  0  0  0  0  0  0  0  0  0
   -7.0543   -2.5794    0.5375 C   0  0  0  0  0  0  0  0  0  0  0  0
   -6.5655   -1.9804    1.6821 O   0  0  0  0  0  0  0  0  0  0  0  0
   -7.4199    0.0054   -0.7515 C   0  0  0  0  0  0  0  0  0  0  0  0
   -7.2570    1.1691   -0.2971 O   0  0  0  0  0  0  0  0  0  0  0  0
   -9.5091   -0.6639    0.2007 N   0  0  0  0  0  0  0  0  0  0  0  0
   -8.8133   -0.4425   -1.0508 C   0  0  0  0  0  0  0  0  0  0  0  0
  -13.3215    2.2582   -1.4907 O   0  0  0  0  0  0  0  0  0  0  0  0
  -10.1211    2.8219    1.2827 N   0  0  0  0  0  0  0  0  0  0  0  0
  -12.6441    1.9640    0.7077 O   0  0  0  0  0  0  0  0  0  0  0  0
  -10.7183    0.2434    1.9741 O   0  0  0  0  0  0  0  0  0  0  0  0
  -10.0502    1.7774    0.3069 C   0  0  1  0  0  0  0  0  0  0  0  0
  -12.3510    2.0675   -0.5232 C   0  0  0  0  0  0  0  0  0  0  0  0
  -10.1184    0.4126    0.8853 C   0  0  0  0  0  0  0  0  0  0  0  0
  -10.9209    1.9762   -0.8899 C   0  0  0  0  0  0  0  0  0  0  0  0
   -9.3108    3.9593    1.3758 C   0  0  0  0  0  0  0  0  0  0  0  0
   -8.7711    4.3117    2.4573 O   0  0  0  0  0  0  0  0  0  0  0  0
   -9.0448    4.8182    0.1835 C   0  0  2  0  0  0  0  0  0  0  0  0
   -8.4669    6.1049    0.5974 N   0  0  0  0  0  0  0  0  0  0  0  0
  -10.3828    5.1571   -0.4530 C   0  0  0  0  0  0  0  0  0  0  0  0
   -5.8527    9.0101   -2.0458 O   0  0  0  0  0  0  0  0  0  0  0  0
   -6.0579    4.4339   -0.2175 N   0  0  0  0  0  0  0  0  0  0  0  0
   -5.9737    8.5913    0.1541 O   0  0  0  0  0  0  0  0  0  0  0  0
   -6.7914    6.8791    1.9705 O   0  0  0  0  0  0  0  0  0  0  0  0
   -6.0307    5.8695   -0.0072 C   0  0  2  0  0  0  0  0  0  0  0  0
   -5.9306    8.0844   -0.9956 C   0  0  0  0  0  0  0  0  0  0  0  0
   -7.1174    6.3089    0.9012 C   0  0  0  0  0  0  0  0  0  0  0  0
   -5.9562    6.6356   -1.2854 C   0  0  0  0  0  0  0  0  0  0  0  0
   -3.8328    4.8155    1.2974 C   0  0  0  0  0  0  0  0  0  0  0  0
   -4.8674    3.7712   -0.6133 C   0  0  0  0  0  0  0  0  0  0  0  0
   -2.5956    5.1739    2.0540 C   0  0  0  0  0  0  0  0  0  0  0  0
   -3.5480    4.0475    0.0160 C   0  0  1  0  0  0  0  0  0  0  0  0
   -2.6757    4.8061   -0.8213 N   0  0  0  0  0  0  0  0  0  0  0  0
   -1.6578    6.0432    1.2620 C   0  0  0  0  0  0  0  0  0  0  0  0
   -2.2745    7.2972    0.8743 N   0  0  0  0  0  0  0  0  0  0  0  0
   -4.8470    2.8903   -1.5393 O   0  0  0  0  0  0  0  0  0  0  0  0
   -1.3426    4.4719   -1.1675 C   0  0  0  0  0  0  0  0  0  0  0  0
   -0.6550    5.3101   -1.8163 O   0  0  0  0  0  0  0  0  0  0  0  0
   -1.6710    2.1189   -0.9585 N   0  0  0  0  0  0  0  0  0  0  0  0
   -0.6935    3.1871   -0.8145 C   0  0  0  0  0  0  0  0  0  0  0  0
   -0.2611    0.6259    0.4375 C   0  0  1  0  0  0  0  0  0  0  0  0
   -1.5801    1.0134   -0.0735 C   0  0  0  0  0  0  0  0  0  0  0  0
   -2.6133    0.3859    0.2618 O   0  0  0  0  0  0  0  0  0  0  0  0
   -0.2610   -0.0277    1.7780 C   0  0  1  0  0  0  0  0  0  0  0  0
    0.5585   -0.0008   -0.5459 N   0  0  0  0  0  0  0  0  0  0  0  0
   -1.6591   -0.2643    2.3099 C   0  0  0  0  0  0  0  0  0  0  0  0
    1.6250   -4.0558   -2.6605 O   0  0  0  0  0  0  0  0  0  0  0  0
    3.9823   -0.2871   -1.9930 N   0  0  0  0  0  0  0  0  0  0  0  0
    3.2065   -3.2489   -1.2318 O   0  0  0  0  0  0  0  0  0  0  0  0
    2.5043    1.0594    0.0093 O   0  0  0  0  0  0  0  0  0  0  0  0
    2.6192   -0.5075   -1.8077 C   0  0  2  0  0  0  0  0  0  0  0  0
    2.3133   -2.9897   -2.0386 C   0  0  0  0  0  0  0  0  0  0  0  0
    1.9366    0.2296   -0.7438 C   0  0  0  0  0  0  0  0  0  0  0  0
    1.9188   -1.6383   -2.3919 C   0  0  0  0  0  0  0  0  0  0  0  0
    6.8643   -0.7146   -2.7549 C   0  0  0  0  0  0  0  0  0  0  0  0
    5.0689   -0.4348   -1.1286 C   0  0  0  0  0  0  0  0  0  0  0  0
    6.7150   -2.1787   -2.7597 C   0  0  0  0  0  0  0  0  0  0  0  0
    6.4605   -0.1466   -1.4609 C   0  0  1  0  0  0  0  0  0  0  0  0
    4.7920   -0.8567    0.0475 O   0  0  0  0  0  0  0  0  0  0  0  0
    6.9971   -2.8792   -3.7916 O   0  0  0  0  0  0  0  0  0  0  0  0
    6.2536   -2.8960   -1.6276 N   0  0  0  0  0  0  0  0  0  0  0  0
    7.4258   -0.3729   -0.4304 N   0  0  0  0  0  0  0  0  0  0  0  0
    8.2325    0.6588    0.1054 C   0  0  0  0  0  0  0  0  0  0  0  0
    7.9988    1.8118   -0.4511 O   0  0  0  0  0  0  0  0  0  0  0  0
    9.2239    0.6384    1.1308 C   0  0  1  0  0  0  0  0  0  0  0  0
   10.2270   -0.3697    1.3210 C   0  0  0  0  0  0  0  0  0  0  0  0
    9.7687    1.9932    1.3953 N   0  0  0  0  0  0  0  0  0  0  0  0
   10.9952    2.0282    2.1077 C   0  0  0  0  0  0  0  0  0  0  0  0
   11.6910    3.2869    2.4572 C   0  0  0  0  0  0  0  0  0  0  0  0
   -0.9706   -5.4514   -1.2233 C   0  0  0  0  0  0  0  0  0  0  0  0
   -0.3714   -6.6886   -1.3877 C   0  0  0  0  0  0  0  0  0  0  0  0
   -0.4743   -7.3326   -2.5871 C   0  0  0  0  0  0  0  0  0  0  0  0
   -1.1610   -6.8100   -3.6827 C   0  0  0  0  0  0  0  0  0  0  0  0
   -1.7509   -5.5633   -3.4835 C   0  0  0  0  0  0  0  0  0  0  0  0
   -1.6548   -4.9087   -2.2850 C   0  0  0  0  0  0  0  0  0  0  0  0
    0.3495   -7.2724   -0.2811 N   0  0  0  0  0  0  0  0  0  0  0  0
   -0.8538   -4.7870    0.0646 C   0  0  0  0  0  0  0  0  0  0  0  0
   -0.2207   -5.3444    0.9823 O   0  0  0  0  0  0  0  0  0  0  0  0
    9.8365   -1.7435    1.5594 C   0  0  0  0  0  0  0  0  0  0  0  0
    9.6118   -2.3681    2.7992 C   0  0  0  0  0  0  0  0  0  0  0  0
    9.2398   -3.6344    2.5886 N   0  0  0  0  0  0  0  0  0  0  0  0
    9.2014   -3.9025    1.2636 C   0  0  0  0  0  0  0  0  0  0  0  0
    9.5754   -2.7181    0.6244 C   0  0  0  0  0  0  0  0  0  0  0  0
    9.6568   -2.6834   -0.7606 C   0  0  0  0  0  0  0  0  0  0  0  0
    8.9143   -5.0254    0.5318 C   0  0  0  0  0  0  0  0  0  0  0  0
    9.0024   -4.9650   -0.8333 C   0  0  0  0  0  0  0  0  0  0  0  0
    9.3704   -3.8092   -1.4958 C   0  0  0  0  0  0  0  0  0  0  0  0
   11.5460    0.9379    2.4750 O   0  0  0  0  0  0  0  0  0  0  0  0
   12.9700    2.9986    3.2451 C   0  0  0  0  0  0  0  0  0  0  0  0
   13.9348    2.1433    2.4895 C   0  0  0  0  0  0  0  0  0  0  0  0
   14.4149    2.7259    1.1901 C   0  0  0  0  0  0  0  0  0  0  0  0
   13.2392    2.9741    0.2578 C   0  0  0  0  0  0  0  0  0  0  0  0
   13.7371    3.5600   -1.0622 C   0  0  0  0  0  0  0  0  0  0  0  0
   14.4637    4.8697   -0.8140 C   0  0  0  0  0  0  0  0  0  0  0  0
   14.9776    5.4713   -2.0975 C   0  0  0  0  0  0  0  0  0  0  0  0
   15.6914    6.7717   -1.7157 C   0  0  0  0  0  0  0  0  0  0  0  0
  2  1  2  0
  3  1  1  0
  6  1  1  0
  3  4  1  0
  3  5  1  6
  8  4  1  0
 96  5  1  0
 63  6  1  0
  9  7  2  0
 10  7  1  0
 14  7  1  0
 13  8  1  0
 11  8  2  0
 12 10  1  0
 13 12  1  0
 12 16  1  1
 13 15  1  6
 17 15  1  0
 18 17  1  0
 19 17  2  0
 18 20  1  0
 18 21  1  1
 23 20  1  0
 22 21  1  0
 24 23  2  0
 26 23  1  0
 26 25  1  0
 33 25  1  0
 32 27  1  0
 31 28  1  0
 35 28  1  0
 32 29  2  0
 33 30  2  0
 33 31  1  0
 31 34  1  1
 34 32  1  0
 36 35  2  0
 37 35  1  0
 37 38  1  0
 37 39  1  1
 46 38  1  0
 45 40  1  0
 44 41  1  0
 49 41  1  0
 45 42  2  0
 46 43  2  0
 46 44  1  0
 44 47  1  6
 47 45  1  0
 50 48  1  0
 51 48  1  1
 51 49  1  0
 55 49  2  0
 53 50  1  0
 51 52  1  0
 56 52  1  0
 54 53  1  0
 57 56  2  0
 59 56  1  0
 59 58  1  0
 61 58  1  0
 61 60  1  0
 63 60  1  0
 60 64  1  1
 62 61  2  0
 63 65  1  6
 72 64  1  0
 71 66  1  0
 70 67  1  0
 75 67  1  0
 71 68  2  0
 72 69  2  0
 72 70  1  0
 70 73  1  1
 73 71  1  0
 76 74  1  0
 77 74  1  6
 77 75  1  0
 78 75  2  0
 79 76  2  0
 80 76  1  0
 77 81  1  0
 82 81  1  0
 83 82  2  0
 84 82  1  0
 84 85  1  1
 84 86  1  0
 87 86  1  0
 88 87  1  0
 94 89  1  0
 90 89  2  0
 96 89  1  0
 91 90  1  0
 95 90  1  0
 92 91  2  0
 93 92  1  0
 94 93  2  0
 97 96  2  0
 98 85  1  0
 99 98  2  0
102 98  1  0
100 99  1  0
101100  1  0
102101  2  0
104101  1  0
103102  1  0
106103  2  0
105104  2  0
106105  1  0
 87107  2  0
108 88  1  0
109108  1  0
110109  1  0
111110  1  0
112111  1  0
113112  1  0
114113  1  0
115114  1  0
M  END
>  <DATABASE_ID>  (6) 
DB00080

>  <DATABASE_NAME>  (6) 
drugbank

>  <SMILES>  (6) 
CCCCCCCCCC(=O)N[C@@H](CC1=CNC2=C1C=CC=C2)C(=O)N[C@@H](CC(N)=O)C(=O)N[C@@H](CC(O)=O)C(=O)N[C@H]1[C@@H](C)OC(=O)[C@H](CC(=O)C2=C(N)C=CC=C2)NC(=O)[C@@H](NC(=O)[C@@H](CO)NC(=O)CNC(=O)[C@H](CC(O)=O)NC(=O)[C@@H](C)NC(=O)[C@H](CC(O)=O)NC(=O)[C@H](CCCN)NC(=O)CNC1=O)[C@H](C)CC(O)=O

>  <INCHI_IDENTIFIER>  (6) 
InChI=1S/C72H101N17O26/c1-5-6-7-8-9-10-11-22-53(93)81-44(25-38-31-76-42-20-15-13-17-39(38)42)66(108)84-45(27-52(75)92)67(109)86-48(30-59(102)103)68(110)89-61-37(4)115-72(114)49(26-51(91)40-18-12-14-19-41(40)74)87-71(113)60(35(2)24-56(96)97)88-69(111)50(34-90)82-55(95)32-77-63(105)46(28-57(98)99)83-62(104)36(3)79-65(107)47(29-58(100)101)85-64(106)43(21-16-23-73)80-54(94)33-78-70(61)112/h12-15,17-20,31,35-37,43-50,60-61,76,90H,5-11,16,21-30,32-34,73-74H2,1-4H3,(H2,75,92)(H,77,105)(H,78,112)(H,79,107)(H,80,94)(H,81,93)(H,82,95)(H,83,104)(H,84,108)(H,85,106)(H,86,109)(H,87,113)(H,88,111)(H,89,110)(H,96,97)(H,98,99)(H,100,101)(H,102,103)/t35-,36-,37-,43+,44+,45+,46+,47+,48+,49+,50-,60+,61+/m1/s1

>  <INCHI_KEY>  (6) 
DOAKLVKFURWEDJ-RWDRXURGSA-N

>  <FORMULA>  (6) 
C72H101N17O26

>  <MOLECULAR_WEIGHT>  (6) 
1620.693

>  <EXACT_MASS>  (6) 
1619.71036644

>  <JCHEM_ACCEPTOR_COUNT>  (6) 
27

>  <JCHEM_ATOM_COUNT>  (6) 
216

>  <JCHEM_AVERAGE_POLARIZABILITY>  (6) 
161.47964273425862

>  <JCHEM_BIOAVAILABILITY>  (6) 
0

>  <JCHEM_DONOR_COUNT>  (6) 
22

>  <JCHEM_FORMAL_CHARGE>  (6) 
0

>  <JCHEM_GHOSE_FILTER>  (6) 
0

>  <JCHEM_IUPAC>  (6) 
(3S)-3-{[(3S,6S,9R,15S,18R,21S,24S,30S,31R)-3-[2-(2-aminophenyl)-2-oxoethyl]-24-(3-aminopropyl)-15,21-bis(carboxymethyl)-6-[(2R)-1-carboxypropan-2-yl]-9-(hydroxymethyl)-18,31-dimethyl-2,5,8,11,14,17,20,23,26,29-decaoxo-1-oxa-4,7,10,13,16,19,22,25,28-nonaazacyclohentriacontan-30-yl]carbamoyl}-3-[(2S)-3-carbamoyl-2-[(2S)-2-decanamido-3-(1H-indol-3-yl)propanamido]propanamido]propanoic acid

>  <ALOGPS_LOGP>  (6) 
-0.47

>  <JCHEM_LOGP>  (6) 
-9.365402671272518

>  <ALOGPS_LOGS>  (6) 
-4.97

>  <JCHEM_MDDR_LIKE_RULE>  (6) 
1

>  <JCHEM_NUMBER_OF_RINGS>  (6) 
4

>  <JCHEM_PHYSIOLOGICAL_CHARGE>  (6) 
-3

>  <JCHEM_PKA>  (6) 
3.40977094699184

>  <JCHEM_PKA_STRONGEST_ACIDIC>  (6) 
2.9766473286002766

>  <JCHEM_PKA_STRONGEST_BASIC>  (6) 
9.593421979944157

>  <JCHEM_POLAR_SURFACE_AREA>  (6) 
702.02

>  <JCHEM_REFRACTIVITY>  (6) 
393.5654000000003

>  <JCHEM_ROTATABLE_BOND_COUNT>  (6) 
35

>  <JCHEM_RULE_OF_FIVE>  (6) 
0

>  <ALOGPS_SOLUBILITY>  (6) 
1.73e-02 g/l

>  <JCHEM_TRADITIONAL_IUPAC>  (6) 
(3S)-3-{[(3S,6S,9R,15S,18R,21S,24S,30S,31R)-3-[2-(2-aminophenyl)-2-oxoethyl]-24-(3-aminopropyl)-15,21-bis(carboxymethyl)-6-[(2R)-1-carboxypropan-2-yl]-9-(hydroxymethyl)-18,31-dimethyl-2,5,8,11,14,17,20,23,26,29-decaoxo-1-oxa-4,7,10,13,16,19,22,25,28-nonaazacyclohentriacontan-30-yl]carbamoyl}-3-[(2S)-3-carbamoyl-2-[(2S)-2-decanamido-3-(1H-indol-3-yl)propanamido]propanamido]propanoic acid

>  <JCHEM_VEBER_RULE>  (6) 
0

>  <DRUGBANK_ID>  (6) 
DB00080

>  <SECONDARY_ACCESSION_NUMBERS>  (6) 
BTD00111; BIOD00111

>  <DRUG_GROUPS>  (6) 
approved; investigational

>  <GENERIC_NAME>  (6) 
Daptomycin

>  <SYNONYMS>  (6) 
daptomicina; Daptomycin

>  <PRODUCTS>  (6) 
Cubicin; Cubicin RF; Daptomycin

$$$$
Ciclosporin
     RDKit          3D

 85 85  0  0  0  0  0  0  0  0999 V2000
   -3.6114    2.2443   -0.9152 C   0  0  2  0  0  0  0  0  0  0  0  0
   -3.8278    2.3106    0.4853 N   0  0  0  0  0  0  0  0  0  0  0  0
   -2.1901    2.0830   -1.3185 C   0  0  0  0  0  0  0  0  0  0  0  0
   -4.2613    3.3317   -1.7063 C   0  0  1  0  0  0  0  0  0  0  0  0
   -3.6093    1.1620    1.2955 C   0  0  0  0  0  0  0  0  0  0  0  0
   -4.2794    3.5313    1.1720 C   0  0  0  0  0  0  0  0  0  0  0  0
   -1.1665    2.5952   -0.5194 N   0  0  0  0  0  0  0  0  0  0  0  0
   -2.0079    1.4663   -2.4037 O   0  0  0  0  0  0  0  0  0  0  0  0
   -5.7474    3.2988   -1.6998 C   0  0  2  0  0  0  0  0  0  0  0  0
   -3.8084    4.5935   -1.3251 O   0  0  0  0  0  0  0  0  0  0  0  0
   -3.5415   -0.2282    0.7630 C   0  0  1  0  0  0  0  0  0  0  0  0
   -3.4635    1.3373    2.5505 O   0  0  0  0  0  0  0  0  0  0  0  0
   -1.0256    3.9439   -0.0414 C   0  0  1  0  0  0  0  0  0  0  0  0
   -6.3490    2.0557   -2.2501 C   0  0  0  0  0  0  0  0  0  0  0  0
   -6.3956    4.5705   -2.1274 C   0  0  0  0  0  0  0  0  0  0  0  0
   -2.1797   -0.6531    0.5456 N   0  0  0  0  0  0  0  0  0  0  0  0
   -0.4796    4.0191    1.3179 C   0  0  0  0  0  0  0  0  0  0  0  0
   -0.4136    4.8801   -1.0231 C   0  0  0  0  0  0  0  0  0  0  0  0
   -7.8344    2.1452   -2.1885 C   0  0  0  0  0  0  0  0  0  0  0  0
   -1.6866   -1.3047   -0.6124 C   0  0  0  0  0  0  0  0  0  0  0  0
   -1.2281   -0.3741    1.6278 C   0  0  0  0  0  0  0  0  0  0  0  0
    0.7969    4.5403    1.6046 N   0  0  0  0  0  0  0  0  0  0  0  0
   -1.1894    3.5937    2.2919 O   0  0  0  0  0  0  0  0  0  0  0  0
   -0.3232    6.2519   -0.4034 C   0  0  0  0  0  0  0  0  0  0  0  0
   -8.4818    3.1993   -1.7053 C   0  0  0  0  0  0  0  0  0  0  0  0
   -2.3338   -2.3924   -1.3528 C   0  0  1  0  0  0  0  0  0  0  0  0
   -0.5522   -0.9324   -1.0987 O   0  0  0  0  0  0  0  0  0  0  0  0
    1.9149    4.5018    0.6808 C   0  0  0  0  0  0  0  0  0  0  0  0
    1.0329    5.1667    2.9141 C   0  0  0  0  0  0  0  0  0  0  0  0
   -9.9763    3.2825   -1.6464 C   0  0  0  0  0  0  0  0  0  0  0  0
   -1.4927   -3.5373   -1.4517 N   0  0  0  0  0  0  0  0  0  0  0  0
   -3.7716   -2.5781   -1.1939 C   0  0  0  0  0  0  0  0  0  0  0  0
    2.9034    5.5719    0.9763 C   0  0  0  0  0  0  0  0  0  0  0  0
   -1.7453   -4.8495   -0.9978 C   0  0  0  0  0  0  0  0  0  0  0  0
   -0.1913   -3.3310   -2.1160 C   0  0  0  0  0  0  0  0  0  0  0  0
   -4.6129   -1.4052   -1.6079 C   0  0  0  0  0  0  0  0  0  0  0  0
    4.2958    5.3690    0.8994 N   0  0  0  0  0  0  0  0  0  0  0  0
    2.4025    6.7020    1.3089 O   0  0  0  0  0  0  0  0  0  0  0  0
   -2.6463   -5.2651    0.0786 C   0  0  1  0  0  0  0  0  0  0  0  0
   -1.1313   -5.8237   -1.5708 O   0  0  0  0  0  0  0  0  0  0  0  0
   -6.0759   -1.6664   -1.4173 C   0  0  0  0  0  0  0  0  0  0  0  0
   -4.2607   -0.8724   -2.9647 C   0  0  0  0  0  0  0  0  0  0  0  0
    4.8713    4.4121    0.0097 C   0  0  2  0  0  0  0  0  0  0  0  0
    5.1607    6.1575    1.7501 C   0  0  0  0  0  0  0  0  0  0  0  0
   -2.2651   -4.9352    1.4033 N   0  0  0  0  0  0  0  0  0  0  0  0
   -4.0933   -5.2661   -0.2233 C   0  0  0  0  0  0  0  0  0  0  0  0
    3.8745    3.5690   -0.6882 C   0  0  0  0  0  0  0  0  0  0  0  0
    6.0735    3.7071    0.5056 C   0  0  0  0  0  0  0  0  0  0  0  0
   -0.9719   -5.0792    1.9625 C   0  0  0  0  0  0  0  0  0  0  0  0
   -3.3041   -4.3940    2.2950 C   0  0  0  0  0  0  0  0  0  0  0  0
   -4.4410   -6.2010   -1.3768 C   0  0  0  0  0  0  0  0  0  0  0  0
    3.6319    2.2826   -0.2495 N   0  0  0  0  0  0  0  0  0  0  0  0
    3.3061    4.1372   -1.6748 O   0  0  0  0  0  0  0  0  0  0  0  0
    7.1688    4.7091    0.8038 C   0  0  0  0  0  0  0  0  0  0  0  0
    0.2751   -4.7691    1.1753 C   0  0  2  0  0  0  0  0  0  0  0  0
   -0.8304   -5.4819    3.1670 O   0  0  0  0  0  0  0  0  0  0  0  0
   -4.0543   -7.6159   -1.0648 C   0  0  0  0  0  0  0  0  0  0  0  0
   -5.8623   -6.0418   -1.8168 C   0  0  0  0  0  0  0  0  0  0  0  0
    4.2657    1.0539   -0.3538 C   0  0  2  0  0  0  0  0  0  0  0  0
    8.3774    3.9253    1.3099 C   0  0  0  0  0  0  0  0  0  0  0  0
    7.5581    5.4824   -0.4441 C   0  0  0  0  0  0  0  0  0  0  0  0
    1.3631   -5.4833    1.7489 N   0  0  0  0  0  0  0  0  0  0  0  0
    0.4608   -3.2889    1.2100 C   0  0  0  0  0  0  0  0  0  0  0  0
    4.9022    0.4581    0.8029 C   0  0  0  0  0  0  0  0  0  0  0  0
    4.9047    0.6440   -1.6167 C   0  0  0  0  0  0  0  0  0  0  0  0
    2.5961   -4.9973    2.2013 C   0  0  0  0  0  0  0  0  0  0  0  0
    5.4288   -0.8694    0.6869 N   0  0  0  0  0  0  0  0  0  0  0  0
    5.0516    0.9917    1.9418 O   0  0  0  0  0  0  0  0  0  0  0  0
    3.8734    0.6045   -2.7216 C   0  0  0  0  0  0  0  0  0  0  0  0
    6.1279    1.4250   -1.9962 C   0  0  0  0  0  0  0  0  0  0  0  0
    3.5581   -4.2982    1.2959 C   0  0  1  0  0  0  0  0  0  0  0  0
    2.9996   -5.1093    3.4145 O   0  0  0  0  0  0  0  0  0  0  0  0
    4.8970   -1.7850   -0.3249 C   0  0  2  0  0  0  0  0  0  0  0  0
    6.4857   -1.3699    1.5389 C   0  0  0  0  0  0  0  0  0  0  0  0
    3.2204   -2.9178    1.1558 N   0  0  0  0  0  0  0  0  0  0  0  0
    4.9543   -4.5655    1.7521 C   0  0  0  0  0  0  0  0  0  0  0  0
    3.4956   -2.0685    0.0646 C   0  0  0  0  0  0  0  0  0  0  0  0
    2.5939   -1.5189   -0.6195 O   0  0  0  0  0  0  0  0  0  0  0  0
   -4.1625   -1.1493    1.7840 C   0  0  0  0  0  0  0  0  0  0  0  0
   -3.4059   -1.0625    3.0981 C   0  0  0  0  0  0  0  0  0  0  0  0
   -5.6258   -0.8088    1.9628 C   0  0  0  0  0  0  0  0  0  0  0  0
    5.7583   -2.9745   -0.5118 C   0  0  0  0  0  0  0  0  0  0  0  0
    5.1467   -3.8692   -1.5692 C   0  0  0  0  0  0  0  0  0  0  0  0
    6.0365   -5.1038   -1.7674 C   0  0  0  0  0  0  0  0  0  0  0  0
    5.1436   -3.0690   -2.8759 C   0  0  0  0  0  0  0  0  0  0  0  0
  1  2  1  1
  1  3  1  0
  1  4  1  0
  2  5  1  0
  2  6  1  0
  3  7  1  0
  3  8  2  0
  4  9  1  0
  4 10  1  1
  5 11  1  0
  5 12  2  0
  7 13  1  0
  9 14  1  0
  9 15  1  1
 11 16  1  0
 13 17  1  0
 13 18  1  1
 14 19  1  0
 16 20  1  0
 16 21  1  0
 17 22  1  0
 17 23  2  0
 18 24  1  0
 19 25  2  0
 20 26  1  0
 20 27  2  0
 22 28  1  0
 22 29  1  0
 25 30  1  0
 26 31  1  0
 26 32  1  1
 28 33  1  0
 31 35  1  0
 32 36  1  0
 33 38  2  0
 34 39  1  0
 34 40  2  0
 36 41  1  0
 36 42  1  0
 37 43  1  0
 37 44  1  0
 39 45  1  0
 39 46  1  6
 43 47  1  0
 43 48  1  1
 45 49  1  0
 45 50  1  0
 46 51  1  0
 47 52  1  0
 47 53  2  0
 48 54  1  0
 49 55  1  0
 49 56  2  0
 51 57  1  0
 51 58  1  0
 52 59  1  0
 54 60  1  0
 54 61  1  0
 55 62  1  0
 55 63  1  1
 59 64  1  0
 59 65  1  6
 62 66  1  0
 64 67  1  0
 64 68  2  0
 65 69  1  0
 65 70  1  0
 66 71  1  0
 66 72  2  0
 67 73  1  0
 67 74  1  0
 71 75  1  0
 71 76  1  1
 73 77  1  0
 77 78  2  0
 75 77  1  0
 11 79  1  1
 79 80  1  0
 79 81  1  0
 73 82  1  1
 82 83  1  0
 83 84  1  0
 83 85  1  0
 34 31  1  0
 33 37  1  0
M  END
>  <DATABASE_ID>  (7) 
DB00091

>  <DATABASE_NAME>  (7) 
drugbank

>  <SMILES>  (7) 
CC[C@@H]1NC(=O)[C@H]([C@H](O)[C@H](C)C\C=C\C)N(C)C(=O)[C@H](C(C)C)N(C)C(=O)[C@H](CC(C)C)N(C)C(=O)[C@H](CC(C)C)N(C)C(=O)[C@@H](C)NC(=O)[C@H](C)NC(=O)[C@H](CC(C)C)N(C)C(=O)[C@@H](NC(=O)[C@H](CC(C)C)N(C)C(=O)CN(C)C1=O)C(C)C

>  <INCHI_IDENTIFIER>  (7) 
InChI=1S/C62H111N11O12/c1-25-27-28-40(15)52(75)51-56(79)65-43(26-2)58(81)67(18)33-48(74)68(19)44(29-34(3)4)55(78)66-49(38(11)12)61(84)69(20)45(30-35(5)6)54(77)63-41(16)53(76)64-42(17)57(80)70(21)46(31-36(7)8)59(82)71(22)47(32-37(9)10)60(83)72(23)50(39(13)14)62(85)73(51)24/h25,27,34-47,49-52,75H,26,28-33H2,1-24H3,(H,63,77)(H,64,76)(H,65,79)(H,66,78)/b27-25+/t40-,41+,42-,43+,44+,45+,46+,47+,49+,50+,51+,52-/m1/s1

>  <INCHI_KEY>  (7) 
PMATZTZNYRCHOR-CGLBZJNRSA-N

>  <FORMULA>  (7) 
C62H111N11O12

>  <MOLECULAR_WEIGHT>  (7) 
1202.635

>  <EXACT_MASS>  (7) 
1201.841368058

>  <JCHEM_ACCEPTOR_COUNT>  (7) 
12

>  <JCHEM_ATOM_COUNT>  (7) 
196

>  <JCHEM_AVERAGE_POLARIZABILITY>  (7) 
133.60132638203973

>  <JCHEM_BIOAVAILABILITY>  (7) 
0

>  <JCHEM_DONOR_COUNT>  (7) 
5

>  <JCHEM_FORMAL_CHARGE>  (7) 
0

>  <JCHEM_GHOSE_FILTER>  (7) 
0

>  <JCHEM_IUPAC>  (7) 
(3S,6S,9S,12R,15S,18S,21S,24S,30S,33S)-30-ethyl-33-[(1R,2R,4E)-1-hydroxy-2-methylhex-4-en-1-yl]-1,4,7,10,12,15,19,25,28-nonamethyl-6,9,18,24-tetrakis(2-methylpropyl)-3,21-bis(propan-2-yl)-1,4,7,10,13,16,19,22,25,28,31-undecaazacyclotritriacontan-2,5,8,11,14,17,20,23,26,29,32-undecone

>  <JCHEM_LOGP>  (7) 
3.638157327333332

>  <JCHEM_MDDR_LIKE_RULE>  (7) 
0

>  <JCHEM_NUMBER_OF_RINGS>  (7) 
1

>  <JCHEM_PHYSIOLOGICAL_CHARGE>  (7) 
0

>  <JCHEM_PKA>  (7) 
12.234112317341314

>  <JCHEM_PKA_STRONGEST_ACIDIC>  (7) 
11.825701333808036

>  <JCHEM_PKA_STRONGEST_BASIC>  (7) 
-2.3937129676327564

>  <JCHEM_POLAR_SURFACE_AREA>  (7) 
278.79999999999995

>  <JCHEM_REFRACTIVITY>  (7) 
327.1417

>  <JCHEM_ROTATABLE_BOND_COUNT>  (7) 
15

>  <JCHEM_RULE_OF_FIVE>  (7) 
0

>  <JCHEM_TRADITIONAL_IUPAC>  (7) 
(3S,6S,9S,12R,15S,18S,21S,24S,30S,33S)-30-ethyl-33-[(1R,2R,4E)-1-hydroxy-2-methylhex-4-en-1-yl]-3,21-diisopropyl-1,4,7,10,12,15,19,25,28-nonamethyl-6,9,18,24-tetrakis(2-methylpropyl)-1,4,7,10,13,16,19,22,25,28,31-undecaazacyclotritriacontan-2,5,8,11,14,17,20,23,26,29,32-undecone

>  <JCHEM_VEBER_RULE>  (7) 
0

>  <DRUGBANK_ID>  (7) 
DB00091

>  <SECONDARY_ACCESSION_NUMBERS>  (7) 
BTD00003; BIOD00003

>  <DRUG_GROUPS>  (7) 
approved; investigational; vet_approved

>  <GENERIC_NAME>  (7) 
Ciclosporin

>  <SYNONYMS>  (7) 
Ciclosporin; Ciclosporina; Ciclosporine; Ciclosporinum; CsA; CyA; Cyclosporin; Cyclosporin A; Cyclosporine

>  <PRODUCTS>  (7) 
Apo-cyclosporine Oral Solution; Aqua-stasis; Cequa; Cyclo-derm; CycloSPORINE; Cyclosporine; Cyclosporine Modified; Cyclosporine/Chondroitin PF; Cyclosporine/Chondroitin Sulfate PF; Gengraf; Hydro-stasis; Nail Cyclosporin-A; Neoral; Neoral 100mg; Neoral 10mg; Neoral 25mg; Neoral 50mg; Neoral Oral Solution 100mg/ml; Restasis; Restasis MultiDose; Sandimmune; Sandimmune Cap 50mg; Sandimmune IV 50mg/ml; Sandimmune Oral Sol 100mg/ml; Sandimmune Soft Gelatin Cap 100mg; Sandimmune Soft Gelatine Cap 25mg; Sandoz Cyclosporine; Teva-cyclosporine

>  <INTERNATIONAL_BRANDS>  (7) 
Sangcya

$$$$
Octreotide
     RDKit          3D

 71 75  0  0  0  0  0  0  0  0999 V2000
    3.6694   -1.4881   -1.4078 N   0  0  0  0  0  0  0  0  0  0  0  0
    4.3140   -0.5710   -0.5537 C   0  0  1  0  0  0  0  0  0  0  0  0
    3.4892    0.4791    0.0483 C   0  0  0  0  0  0  0  0  0  0  0  0
    3.2611    1.6837   -0.6054 N   0  0  0  0  0  0  0  0  0  0  0  0
   -1.3038    0.2725    0.4158 N   0  0  0  0  0  0  0  0  0  0  0  0
   -1.5649   -2.5860    1.3110 N   0  0  0  0  0  0  0  0  0  0  0  0
   -1.2450    1.6842    0.4540 C   0  0  0  0  0  0  0  0  0  0  0  0
    1.6399   -4.1248    0.3240 N   0  0  0  0  0  0  0  0  0  0  0  0
    2.6149   -2.3591   -1.0538 C   0  0  0  0  0  0  0  0  0  0  0  0
    0.4312   -3.9034    0.9793 C   0  0  0  0  0  0  0  0  0  0  0  0
   -2.6081   -1.6701    1.0948 C   0  0  0  0  0  0  0  0  0  0  0  0
   -2.1448   -4.9216   -0.4240 C   0  0  0  0  0  0  0  0  0  0  0  0
    4.1654    2.5321   -1.3019 C   0  0  2  0  0  0  0  0  0  0  0  0
   -1.4766    2.4174   -0.8108 C   0  0  1  0  0  0  0  0  0  0  0  0
    5.1699    3.1922   -0.4162 C   0  0  0  0  0  0  0  0  0  0  0  0
   -0.6376   -3.0917    0.3470 C   0  0  1  0  0  0  0  0  0  0  0  0
   -2.2121    3.6194   -0.5452 N   0  0  0  0  0  0  0  0  0  0  0  0
   -2.4220   -0.5642    0.1804 C   0  0  1  0  0  0  0  0  0  0  0  0
   -3.2443    3.6542    0.3986 C   0  0  0  0  0  0  0  0  0  0  0  0
   -3.8660   -6.2206    0.0850 N   0  0  0  0  0  0  0  0  0  0  0  0
    6.1445    4.0846   -0.8993 N   0  0  0  0  0  0  0  0  0  0  0  0
   -3.5115   -4.9894   -0.3097 C   0  0  0  0  0  0  0  0  0  0  0  0
    2.7470   -3.2456    0.1285 C   0  0  2  0  0  0  0  0  0  0  0  0
   -1.2996   -3.7606   -0.8236 C   0  0  0  0  0  0  0  0  0  0  0  0
   -1.6782   -6.1829   -0.0763 C   0  0  0  0  0  0  0  0  0  0  0  0
    7.1343    4.7502   -0.1083 C   0  0  1  0  0  0  0  0  0  0  0  0
    2.5778    4.5553   -0.5862 S   0  0  0  0  0  0  0  0  0  0  0  0
    0.4755    4.3446   -0.6036 S   0  0  0  0  0  0  0  0  0  0  0  0
   -2.7496   -6.9891    0.2400 C   0  0  0  0  0  0  0  0  0  0  0  0
   -4.0190    4.9244    0.6643 C   0  0  1  0  0  0  0  0  0  0  0  0
    2.9904    0.2582    1.1797 O   0  0  0  0  0  0  0  0  0  0  0  0
   -1.0101    2.3759    1.4741 O   0  0  0  0  0  0  0  0  0  0  0  0
    1.5294   -2.4195   -1.7186 O   0  0  0  0  0  0  0  0  0  0  0  0
    0.1263   -4.3560    2.1443 O   0  0  0  0  0  0  0  0  0  0  0  0
   -3.6869   -1.8349    1.7074 O   0  0  0  0  0  0  0  0  0  0  0  0
    5.1438    2.9394    0.8187 O   0  0  0  0  0  0  0  0  0  0  0  0
   -3.5142   -0.0794   -0.6473 C   0  0  0  0  0  0  0  0  0  0  0  0
   -3.5924    2.6525    1.0753 O   0  0  0  0  0  0  0  0  0  0  0  0
    3.3578    3.6457   -1.9474 C   0  0  0  0  0  0  0  0  0  0  0  0
   -0.0592    2.7657   -1.3184 C   0  0  0  0  0  0  0  0  0  0  0  0
    5.4612   -1.0554    0.2434 C   0  0  2  0  0  0  0  0  0  0  0  0
   -4.6308    5.3596   -0.6557 C   0  0  0  0  0  0  0  0  0  0  0  0
    6.4973    5.8199    0.7276 C   0  0  2  0  0  0  0  0  0  0  0  0
   -5.0312    4.6984    1.6638 N   0  0  0  0  0  0  0  0  0  0  0  0
   -4.6072   -1.0514   -0.7940 C   0  0  0  0  0  0  0  0  0  0  0  0
   -5.4082    6.6084   -0.4809 C   0  0  0  0  0  0  0  0  0  0  0  0
    4.3131   -7.3925    0.4652 N   0  0  0  0  0  0  0  0  0  0  0  0
    6.0167   -0.0563    1.0592 O   0  0  0  0  0  0  0  0  0  0  0  0
    5.5401    5.3825    1.6136 O   0  0  0  0  0  0  0  0  0  0  0  0
    7.9478    3.8270    0.7636 C   0  0  0  0  0  0  0  0  0  0  0  0
    8.8774    4.5779    1.4890 O   0  0  0  0  0  0  0  0  0  0  0  0
   -0.4023   -6.7103   -0.0062 C   0  0  0  0  0  0  0  0  0  0  0  0
    4.0701   -3.9860    0.1102 C   0  0  0  0  0  0  0  0  0  0  0  0
   -2.5892   -8.3164    0.6287 C   0  0  0  0  0  0  0  0  0  0  0  0
    3.0944   -6.6327    0.4571 C   0  0  0  0  0  0  0  0  0  0  0  0
    6.5318   -1.7167   -0.6004 C   0  0  0  0  0  0  0  0  0  0  0  0
    6.0748    7.0331   -0.0526 C   0  0  0  0  0  0  0  0  0  0  0  0
   -4.7519    7.8196   -0.6531 C   0  0  0  0  0  0  0  0  0  0  0  0
   -5.7050   -1.0894    0.0520 C   0  0  0  0  0  0  0  0  0  0  0  0
   -4.5900   -1.9870   -1.8151 C   0  0  0  0  0  0  0  0  0  0  0  0
   -6.7461    6.6130   -0.1628 C   0  0  0  0  0  0  0  0  0  0  0  0
    4.2147   -4.6870    1.4468 C   0  0  0  0  0  0  0  0  0  0  0  0
    3.0470   -5.6390    1.5883 C   0  0  0  0  0  0  0  0  0  0  0  0
   -0.2658   -8.0234    0.3796 C   0  0  0  0  0  0  0  0  0  0  0  0
   -1.3220   -8.8484    0.7010 C   0  0  0  0  0  0  0  0  0  0  0  0
   -7.4549    7.7829   -0.0089 C   0  0  0  0  0  0  0  0  0  0  0  0
   -5.4663    9.0057   -0.4990 C   0  0  0  0  0  0  0  0  0  0  0  0
   -6.7301   -1.9912   -0.0911 C   0  0  0  0  0  0  0  0  0  0  0  0
   -5.6207   -2.9080   -1.9740 C   0  0  0  0  0  0  0  0  0  0  0  0
   -6.6908   -2.9095   -1.1116 C   0  0  0  0  0  0  0  0  0  0  0  0
   -6.8097    8.9993   -0.1786 C   0  0  0  0  0  0  0  0  0  0  0  0
  2  1  1  6
  3  2  1  0
  4  3  1  0
  5 18  1  0
  6 16  1  0
  7  5  1  0
  8 23  1  0
  9  1  1  0
 10  8  1  0
 11  6  1  0
 12 24  1  0
 13  4  1  0
 14 40  1  0
 13 15  1  1
 16 10  1  0
 14 17  1  1
 18 11  1  0
 19 17  1  0
 20 22  1  0
 21 15  1  0
 22 12  2  0
 23  9  1  0
 16 24  1  6
 25 12  1  0
 26 21  1  0
 27 39  1  0
 28 27  1  0
 29 25  2  0
 30 19  1  0
 31  3  2  0
 32  7  2  0
 33  9  2  0
 34 10  2  0
 35 11  2  0
 36 15  2  0
 18 37  1  6
 38 19  2  0
 39 13  1  0
 40 28  1  0
 41  2  1  0
 30 42  1  0
 43 26  1  0
 30 44  1  1
 45 37  1  0
 46 42  1  0
 47 55  1  0
 41 48  1  0
 43 49  1  0
 26 50  1  1
 51 50  1  0
 52 25  1  0
 23 53  1  6
 54 29  1  0
 55 63  1  0
 41 56  1  6
 43 57  1  6
 58 46  2  0
 59 45  2  0
 60 45  1  0
 61 46  1  0
 62 53  1  0
 63 62  1  0
 64 52  2  0
 65 64  1  0
 66 61  2  0
 67 58  1  0
 68 59  1  0
 69 60  2  0
 70 69  1  0
 71 66  1  0
 29 20  1  0
 14  7  1  0
 54 65  2  0
 68 70  2  0
 71 67  2  0
M  END
>  <DATABASE_ID>  (8) 
DB00104

>  <DATABASE_NAME>  (8) 
drugbank

>  <SMILES>  (8) 
[H][C@]1(NC(=O)[C@H](CCCCN)NC(=O)[C@@H](CC2=CNC3=C2C=CC=C3)NC(=O)[C@H](CC2=CC=CC=C2)NC(=O)[C@H](CSSC[C@H](NC1=O)C(=O)N[C@H](CO)[C@@H](C)O)NC(=O)[C@H](N)CC1=CC=CC=C1)[C@@H](C)O

>  <INCHI_IDENTIFIER>  (8) 
InChI=1S/C49H66N10O10S2/c1-28(61)39(25-60)56-48(68)41-27-71-70-26-40(57-43(63)34(51)21-30-13-5-3-6-14-30)47(67)54-37(22-31-15-7-4-8-16-31)45(65)55-38(23-32-24-52-35-18-10-9-17-33(32)35)46(66)53-36(19-11-12-20-50)44(64)59-42(29(2)62)49(69)58-41/h3-10,13-18,24,28-29,34,36-42,52,60-62H,11-12,19-23,25-27,50-51H2,1-2H3,(H,53,66)(H,54,67)(H,55,65)(H,56,68)(H,57,63)(H,58,69)(H,59,64)/t28-,29-,34-,36+,37+,38-,39-,40+,41+,42+/m1/s1

>  <INCHI_KEY>  (8) 
DEQANNDTNATYII-OULOTJBUSA-N

>  <FORMULA>  (8) 
C49H66N10O10S2

>  <MOLECULAR_WEIGHT>  (8) 
1019.25

>  <EXACT_MASS>  (8) 
1018.440480713

>  <JCHEM_ACCEPTOR_COUNT>  (8) 
12

>  <JCHEM_ATOM_COUNT>  (8) 
137

>  <JCHEM_AVERAGE_POLARIZABILITY>  (8) 
107.65312334480934

>  <JCHEM_BIOAVAILABILITY>  (8) 
0

>  <JCHEM_DONOR_COUNT>  (8) 
13

>  <JCHEM_FORMAL_CHARGE>  (8) 
0

>  <JCHEM_GHOSE_FILTER>  (8) 
0

>  <JCHEM_IUPAC>  (8) 
(4R,7S,10S,13R,16S,19R)-19-[(2R)-2-amino-3-phenylpropanamido]-10-(4-aminobutyl)-16-benzyl-N-[(2R,3R)-1,3-dihydroxybutan-2-yl]-7-[(1R)-1-hydroxyethyl]-13-[(1H-indol-3-yl)methyl]-6,9,12,15,18-pentaoxo-1,2-dithia-5,8,11,14,17-pentaazacycloicosane-4-carboxamide

>  <ALOGPS_LOGP>  (8) 
0.42

>  <JCHEM_LOGP>  (8) 
-1.4112649113972529

>  <ALOGPS_LOGS>  (8) 
-4.92

>  <JCHEM_MDDR_LIKE_RULE>  (8) 
1

>  <JCHEM_NUMBER_OF_RINGS>  (8) 
5

>  <JCHEM_PHYSIOLOGICAL_CHARGE>  (8) 
2

>  <JCHEM_PKA>  (8) 
11.802606911063746

>  <JCHEM_PKA_STRONGEST_ACIDIC>  (8) 
11.401008168102589

>  <JCHEM_PKA_STRONGEST_BASIC>  (8) 
10.173664169156496

>  <JCHEM_POLAR_SURFACE_AREA>  (8) 
332.22

>  <JCHEM_REFRACTIVITY>  (8) 
269.76959999999997

>  <JCHEM_ROTATABLE_BOND_COUNT>  (8) 
17

>  <JCHEM_RULE_OF_FIVE>  (8) 
0

>  <ALOGPS_SOLUBILITY>  (8) 
1.22e-02 g/l

>  <JCHEM_TRADITIONAL_IUPAC>  (8) 
(4R,7S,10S,13R,16S,19R)-19-[(2R)-2-amino-3-phenylpropanamido]-10-(4-aminobutyl)-16-benzyl-N-[(2R,3R)-1,3-dihydroxybutan-2-yl]-7-[(1R)-1-hydroxyethyl]-13-(1H-indol-3-ylmethyl)-6,9,12,15,18-pentaoxo-1,2-dithia-5,8,11,14,17-pentaazacycloicosane-4-carboxamide

>  <JCHEM_VEBER_RULE>  (8) 
0

>  <DRUGBANK_ID>  (8) 
DB00104

>  <SECONDARY_ACCESSION_NUMBERS>  (8) 
BTD00088; BIOD00088

>  <DRUG_GROUPS>  (8) 
approved; investigational

>  <GENERIC_NAME>  (8) 
Octreotide

>  <SYNONYMS>  (8) 
Octreotida; Octreotide; Octreotidum; Octrotide

>  <PRODUCTS>  (8) 
Ocphyl; Octreotide; Octreotide Acetate; Octreotide Acetate Injection - 100mcg/ml; Octreotide Acetate Injection - 200mcg/ml; Octreotide Acetate Injection - 500mcg/ml; Octreotide Acetate Injection - 50mcg/ml; Octreotide Acetate Omega 100mcg/ml; Octreotide Acetate Omega 200mcg/ml; Octreotide Acetate Omega 500mcg/ml; Octreotide Acetate Omega 50mcg/ml; Octreotide Injection; Octreotide acetate; Sandostatin; Sandostatin 100mcg/ml; Sandostatin 200mcg/ml; Sandostatin 500mcg/ml; Sandostatin 50mcg/ml; Sandostatin LAR Depot; Sandostatin LAR Depot Demonstration kit; Sandostatin Lar 10mg; Sandostatin Lar 20mg; Sandostatin Lar 30mg

>  <INTERNATIONAL_BRANDS>  (8) 
Sandostatin LAR

>  <SALTS>  (8) 
Octreotide acetate

$$$$
Abarelix
     RDKit          3D

101106  0  0  0  0  0  0  0  0999 V2000
   -4.1751   -2.1654   -1.7902 C   0  0  0  0  0  0  0  0  0  0  0  0
   -6.4168   -2.8594   -1.9934 C   0  0  0  0  0  0  0  0  0  0  0  0
   -6.2606   -3.6104   -0.8470 C   0  0  0  0  0  0  0  0  0  0  0  0
   -5.0450   -3.6064   -0.2102 C   0  0  0  0  0  0  0  0  0  0  0  0
   -4.0092   -2.8908   -0.6752 N   0  0  0  0  0  0  0  0  0  0  0  0
  -13.9123    1.9989   -0.8348 C   0  0  0  0  0  0  0  0  0  0  0  0
  -14.0725    1.8087    0.5471 C   0  0  0  0  0  0  0  0  0  0  0  0
  -15.2928    1.3396    1.0013 C   0  0  0  0  0  0  0  0  0  0  0  0
  -16.3346    1.0590    0.1529 C   0  0  0  0  0  0  0  0  0  0  0  0
  -16.1803    1.2437   -1.2107 C   0  0  0  0  0  0  0  0  0  0  0  0
  -14.9633    1.7123   -1.6614 C   0  0  0  0  0  0  0  0  0  0  0  0
  -12.7295    2.4555   -1.3204 C   0  0  0  0  0  0  0  0  0  0  0  0
  -11.6763    2.7358   -0.4429 C   0  0  0  0  0  0  0  0  0  0  0  0
  -11.8038    2.5596    0.9104 C   0  0  0  0  0  0  0  0  0  0  0  0
  -13.0334    2.0872    1.3802 C   0  0  0  0  0  0  0  0  0  0  0  0
  -10.6975    2.8505    1.8370 C   0  0  0  0  0  0  0  0  0  0  0  0
   -9.8527    1.6898    2.1668 C   0  0  1  0  0  0  0  0  0  0  0  0
   -9.8926    0.6127   -0.1105 N   0  0  0  0  0  0  0  0  0  0  0  0
   -9.1858    1.0855    1.0275 C   0  0  0  0  0  0  0  0  0  0  0  0
   -7.9213    0.9537    1.0107 O   0  0  0  0  0  0  0  0  0  0  0  0
   -9.2588    0.0164   -1.2206 C   0  0  2  0  0  0  0  0  0  0  0  0
   -8.0338    0.5865   -1.7352 C   0  0  0  0  0  0  0  0  0  0  0  0
   -7.2630   -0.1810   -2.6242 N   0  0  0  0  0  0  0  0  0  0  0  0
   -6.0127    0.1396   -3.2351 C   0  0  1  0  0  0  0  0  0  0  0  0
   -4.9981    0.5582   -2.2046 C   0  0  0  0  0  0  0  0  0  0  0  0
   -3.6987    0.9199   -2.5463 N   0  0  0  0  0  0  0  0  0  0  0  0
   -2.6166    1.3341   -1.7548 C   0  0  2  0  0  0  0  0  0  0  0  0
   -1.4669    0.4516   -1.6445 C   0  0  0  0  0  0  0  0  0  0  0  0
   -0.3366    0.7942   -0.8515 N   0  0  0  0  0  0  0  0  0  0  0  0
    0.7985   -0.0373   -0.6982 C   0  0  1  0  0  0  0  0  0  0  0  0
    2.1172    0.4830   -0.9366 C   0  0  0  0  0  0  0  0  0  0  0  0
  -10.2223   -0.5335   -2.1962 C   0  0  0  0  0  0  0  0  0  0  0  0
   -7.6149    1.7219   -1.4235 O   0  0  0  0  0  0  0  0  0  0  0  0
   -5.4916   -1.2697   -3.7202 C   0  0  0  0  0  0  0  0  0  0  0  0
   -2.8316    2.2648   -0.6392 C   0  0  0  0  0  0  0  0  0  0  0  0
   -5.3404    0.5768   -1.0209 O   0  0  0  0  0  0  0  0  0  0  0  0
   -1.4361   -0.6408   -2.2449 O   0  0  0  0  0  0  0  0  0  0  0  0
   -0.4267    2.1145   -0.1910 C   0  0  0  0  0  0  0  0  0  0  0  0
    2.3291    1.6605   -1.4058 O   0  0  0  0  0  0  0  0  0  0  0  0
    3.3193   -0.2350   -0.6834 N   0  0  0  0  0  0  0  0  0  0  0  0
    6.8250    0.0975    0.2848 N   0  0  0  0  0  0  0  0  0  0  0  0
    4.6465    0.2316   -0.8991 C   0  0  1  0  0  0  0  0  0  0  0  0
    5.4657    0.4063    0.3069 C   0  0  0  0  0  0  0  0  0  0  0  0
    6.0401   -2.6521   -2.9254 N   0  0  0  0  0  0  0  0  0  0  0  0
    5.4257   -1.9342   -1.8683 C   0  0  0  0  0  0  0  0  0  0  0  0
    5.2927   -0.4827   -2.0272 C   0  0  0  0  0  0  0  0  0  0  0  0
    5.0359   -2.5815   -0.8728 O   0  0  0  0  0  0  0  0  0  0  0  0
    4.9341    0.8325    1.3575 O   0  0  0  0  0  0  0  0  0  0  0  0
    7.7205    0.2355    1.4197 C   0  0  2  0  0  0  0  0  0  0  0  0
    9.0785    0.5282    0.7855 C   0  0  0  0  0  0  0  0  0  0  0  0
    9.9727    1.3606    1.4561 N   0  0  0  0  0  0  0  0  0  0  0  0
   11.2507    1.7062    0.9934 C   0  0  2  0  0  0  0  0  0  0  0  0
   11.6266    1.4494   -0.3831 C   0  0  0  0  0  0  0  0  0  0  0  0
    7.9234   -1.2086    1.9177 C   0  0  0  0  0  0  0  0  0  0  0  0
    9.3250    0.0123   -0.2993 O   0  0  0  0  0  0  0  0  0  0  0  0
    0.5560   -1.3807   -0.2589 C   0  0  0  0  0  0  0  0  0  0  0  0
   10.8587    1.6454   -1.3940 O   0  0  0  0  0  0  0  0  0  0  0  0
   -8.8549    2.0940    3.1685 N   0  0  0  0  0  0  0  0  0  0  0  0
   -8.3754    1.2132    4.1458 C   0  0  0  0  0  0  0  0  0  0  0  0
   -7.3652    1.5894    5.1771 C   0  0  0  0  0  0  0  0  0  0  0  0
   -8.8406    0.0328    4.1357 O   0  0  0  0  0  0  0  0  0  0  0  0
   13.4696    0.5457   -1.9602 C   0  0  1  0  0  0  0  0  0  0  0  0
   15.2628    0.8824   -0.3910 C   0  0  0  0  0  0  0  0  0  0  0  0
   13.9436    0.6765    0.3169 C   0  0  0  0  0  0  0  0  0  0  0  0
   12.9315    0.9329   -0.6814 N   0  0  0  0  0  0  0  0  0  0  0  0
   14.9378    0.7918   -1.8604 C   0  0  0  0  0  0  0  0  0  0  0  0
   13.2073   -0.8959   -2.1584 C   0  0  0  0  0  0  0  0  0  0  0  0
   13.5729   -1.4458   -3.2055 O   0  0  0  0  0  0  0  0  0  0  0  0
  -11.0414   -1.6174   -1.5653 C   0  0  0  0  0  0  0  0  0  0  0  0
  -10.6200   -2.9374   -1.7359 C   0  0  0  0  0  0  0  0  0  0  0  0
  -11.2863   -4.0081   -1.1906 C   0  0  0  0  0  0  0  0  0  0  0  0
  -12.4241   -3.7860   -0.4375 C   0  0  0  0  0  0  0  0  0  0  0  0
  -12.8404   -2.4943   -0.2673 C   0  0  0  0  0  0  0  0  0  0  0  0
  -12.1720   -1.3959   -0.8166 C   0  0  0  0  0  0  0  0  0  0  0  0
  -13.3008   -5.1535    0.2781 Cl  0  0  0  0  0  0  0  0  0  0  0  0
   -5.3730   -2.1261   -2.4792 C   0  0  0  0  0  0  0  0  0  0  0  0
   -3.6586    1.9009    0.3789 O   0  0  0  0  0  0  0  0  0  0  0  0
   -0.0895   -1.6031    1.0439 C   0  0  0  0  0  0  0  0  0  0  0  0
    0.6387   -1.7211    2.2189 C   0  0  0  0  0  0  0  0  0  0  0  0
   -1.4580   -1.7002    1.0791 C   0  0  0  0  0  0  0  0  0  0  0  0
   -2.1781   -1.9129    2.2412 C   0  0  0  0  0  0  0  0  0  0  0  0
   -1.4382   -2.0299    3.4117 C   0  0  0  0  0  0  0  0  0  0  0  0
   -0.0676   -1.9333    3.3802 C   0  0  0  0  0  0  0  0  0  0  0  0
   -2.1624   -2.2450    4.5831 O   0  0  0  0  0  0  0  0  0  0  0  0
    6.6936   -1.8841    2.3530 C   0  0  0  0  0  0  0  0  0  0  0  0
    6.0228   -1.2115    3.5023 C   0  0  0  0  0  0  0  0  0  0  0  0
    6.7813   -3.3602    2.4716 C   0  0  0  0  0  0  0  0  0  0  0  0
   12.5406   -1.6210   -1.1446 N   0  0  0  0  0  0  0  0  0  0  0  0
   13.4359   -3.8574   -1.1702 C   0  0  0  0  0  0  0  0  0  0  0  0
   13.3447   -5.2669   -1.2352 N   0  0  0  0  0  0  0  0  0  0  0  0
   12.2253   -3.0301   -1.2271 C   0  0  1  0  0  0  0  0  0  0  0  0
   11.4042   -3.3594    0.0108 C   0  0  0  0  0  0  0  0  0  0  0  0
   14.5674   -3.3390   -1.0606 O   0  0  0  0  0  0  0  0  0  0  0  0
   12.3320    1.4534    1.9734 C   0  0  0  0  0  0  0  0  0  0  0  0
   12.1016    2.2595    3.2485 C   0  0  0  0  0  0  0  0  0  0  0  0
   12.0590    3.7085    2.8839 C   0  0  0  0  0  0  0  0  0  0  0  0
   13.3481    4.1648    2.2435 C   0  0  0  0  0  0  0  0  0  0  0  0
   13.2824    5.5731    1.8977 N   0  0  0  0  0  0  0  0  0  0  0  0
   12.3042    5.6897    0.8229 C   0  0  0  0  0  0  0  0  0  0  0  0
   10.9325    5.2314    1.3298 C   0  0  0  0  0  0  0  0  0  0  0  0
   12.1688    7.1449    0.3921 C   0  0  0  0  0  0  0  0  0  0  0  0
  2  3  1  0
  3  4  2  0
  4  5  1  0
  1  5  2  0
  6  7  1  0
  7  8  2  0
  8  9  1  0
  9 10  2  0
 10 11  1  0
  6 11  2  0
  6 12  1  0
 12 13  2  0
 13 14  1  0
 14 15  2  0
  7 15  1  0
 14 16  1  0
 17 16  1  1
 18 19  1  0
 17 19  1  0
 19 20  2  0
 18 21  1  0
 21 22  1  0
 22 23  1  0
 23 24  1  0
 24 25  1  0
 25 26  1  0
 26 27  1  0
 27 28  1  0
 28 29  1  0
 29 30  1  0
 30 31  1  0
 21 32  1  1
 22 33  2  0
 24 34  1  1
 27 35  1  1
 25 36  2  0
 28 37  2  0
 29 38  1  0
 31 39  2  0
 31 40  1  0
 42 43  1  0
 43 41  1  0
 44 45  1  0
 45 46  1  0
 45 47  2  0
 43 48  2  0
 42 46  1  6
 40 42  1  0
 49 50  1  0
 50 51  1  0
 51 52  1  0
 52 53  1  0
 41 49  1  0
 49 54  1  6
 50 55  2  0
 30 56  1  6
 53 57  2  0
 58 59  1  0
 59 60  1  0
 59 61  2  0
 17 58  1  0
 63 64  1  0
 64 65  1  0
 65 62  1  0
 62 66  1  0
 63 66  1  0
 53 65  1  0
 67 68  2  0
 62 67  1  1
 69 32  1  0
 70 71  2  0
 71 72  1  0
 72 73  2  0
 73 74  1  0
 74 69  2  0
 72 75  1  0
 69 70  1  0
 34 76  1  0
  2 76  2  0
 76  1  1  0
 35 77  1  0
 56 78  1  0
 80 81  1  0
 81 82  2  0
 82 83  1  0
 83 79  2  0
 78 80  2  0
 78 79  1  0
 82 84  1  0
 54 85  1  0
 85 86  1  0
 85 87  1  0
 67 88  1  0
 89 90  1  0
 89 91  1  0
 91 88  1  0
 91 92  1  1
 93 89  2  0
 52 94  1  1
 94 95  1  0
 95 96  1  0
 96 97  1  0
 97 98  1  0
 98 99  1  0
 99100  1  0
 99101  1  0
M  END
>  <DATABASE_ID>  (9) 
DB00106

>  <DATABASE_NAME>  (9) 
drugbank

>  <SMILES>  (9) 
CC(C)C[C@H](NC(=O)[C@@H](CC(N)=O)NC(=O)[C@H](CC1=CC=C(O)C=C1)N(C)C(=O)[C@H](CO)NC(=O)[C@@H](CC1=CN=CC=C1)NC(=O)[C@@H](CC1=CC=C(Cl)C=C1)NC(=O)[C@@H](CC1=CC2=C(C=CC=C2)C=C1)NC(C)=O)C(=O)N[C@@H](CCCCNC(C)C)C(=O)N1CCC[C@H]1C(=O)N[C@H](C)C(N)=O

>  <INCHI_IDENTIFIER>  (9) 
InChI=1S/C72H95ClN14O14/c1-41(2)32-54(64(93)80-53(17-10-11-30-77-42(3)4)72(101)87-31-13-18-60(87)69(98)78-43(5)63(75)92)81-68(97)58(38-62(74)91)84-70(99)61(37-46-22-27-52(90)28-23-46)86(7)71(100)59(40-88)85-67(96)57(36-48-14-12-29-76-39-48)83-66(95)56(34-45-20-25-51(73)26-21-45)82-65(94)55(79-44(6)89)35-47-19-24-49-15-8-9-16-50(49)33-47/h8-9,12,14-16,19-29,33,39,41-43,53-61,77,88,90H,10-11,13,17-18,30-32,34-38,40H2,1-7H3,(H2,74,91)(H2,75,92)(H,78,98)(H,79,89)(H,80,93)(H,81,97)(H,82,94)(H,83,95)(H,84,99)(H,85,96)/t43-,53+,54+,55-,56-,57-,58-,59+,60+,61+/m1/s1

>  <INCHI_KEY>  (9) 
AIWRTTMUVOZGPW-HSPKUQOVSA-N

>  <FORMULA>  (9) 
C72H95ClN14O14

>  <MOLECULAR_WEIGHT>  (9) 
1416.09

>  <EXACT_MASS>  (9) 
1414.6840715

>  <JCHEM_ACCEPTOR_COUNT>  (9) 
16

>  <JCHEM_ATOM_COUNT>  (9) 
196

>  <JCHEM_AVERAGE_POLARIZABILITY>  (9) 
149.3109061992772

>  <JCHEM_BIOAVAILABILITY>  (9) 
0

>  <JCHEM_DONOR_COUNT>  (9) 
13

>  <JCHEM_FORMAL_CHARGE>  (9) 
0

>  <JCHEM_GHOSE_FILTER>  (9) 
0

>  <JCHEM_IUPAC>  (9) 
(2R)-N-[(1S)-1-{[(2S)-1-[(2S)-2-{[(1R)-1-carbamoylethyl]carbamoyl}pyrrolidin-1-yl]-1-oxo-6-[(propan-2-yl)amino]hexan-2-yl]carbamoyl}-3-methylbutyl]-2-[(2S)-2-[(2S)-2-[(2R)-2-[(2R)-3-(4-chlorophenyl)-2-[(2R)-2-acetamido-3-(naphthalen-2-yl)propanamido]propanamido]-3-(pyridin-3-yl)propanamido]-3-hydroxy-N-methylpropanamido]-3-(4-hydroxyphenyl)propanamido]butanediamide

>  <ALOGPS_LOGP>  (9) 
2.84

>  <JCHEM_LOGP>  (9) 
-0.4628759057641999

>  <ALOGPS_LOGS>  (9) 
-5.58

>  <JCHEM_MDDR_LIKE_RULE>  (9) 
1

>  <JCHEM_NUMBER_OF_RINGS>  (9) 
6

>  <JCHEM_PHYSIOLOGICAL_CHARGE>  (9) 
1

>  <JCHEM_PKA>  (9) 
11.5022950640595

>  <JCHEM_PKA_STRONGEST_ACIDIC>  (9) 
9.472195835886179

>  <JCHEM_PKA_STRONGEST_BASIC>  (9) 
10.661912348587302

>  <JCHEM_POLAR_SURFACE_AREA>  (9) 
424.9799999999999

>  <JCHEM_REFRACTIVITY>  (9) 
373.9098000000001

>  <JCHEM_ROTATABLE_BOND_COUNT>  (9) 
38

>  <JCHEM_RULE_OF_FIVE>  (9) 
0

>  <ALOGPS_SOLUBILITY>  (9) 
3.71e-03 g/l

>  <JCHEM_TRADITIONAL_IUPAC>  (9) 
abarelix

>  <JCHEM_VEBER_RULE>  (9) 
0

>  <DRUGBANK_ID>  (9) 
DB00106

>  <SECONDARY_ACCESSION_NUMBERS>  (9) 
BTD00051; BIOD00051

>  <DRUG_GROUPS>  (9) 
approved; investigational; withdrawn

>  <GENERIC_NAME>  (9) 
Abarelix

>  <SYNONYMS>  (9) 
Abarelix

>  <INTERNATIONAL_BRANDS>  (9) 
Plenaxis

$$$$
Pyridoxal Phosphate
     RDKit          3D

 16 16  0  0  0  0  0  0  0  0999 V2000
    3.2415   -0.1566   -0.0214 P   0  0  0  0  0  0  0  0  0  0  0  0
    2.1755    1.0227    0.1406 O   0  0  0  0  0  0  0  0  0  0  0  0
   -3.4996    0.4240    1.2837 O   0  0  0  0  0  0  0  0  0  0  0  0
    2.4642   -1.6817    0.3434 O   0  0  0  0  0  0  0  0  0  0  0  0
    4.1866   -0.3576   -1.3316 O   0  0  0  0  0  0  0  0  0  0  0  0
   -2.0382    2.9645    0.1029 O   0  0  0  0  0  0  0  0  0  0  0  0
    4.1570   -0.0517    1.2436 O   0  0  0  0  0  0  0  0  0  0  0  0
   -0.9781   -1.8416   -0.2124 N   0  0  0  0  0  0  0  0  0  0  0  0
   -0.0728    0.3322   -0.0480 C   0  0  0  0  0  0  0  0  0  0  0  0
   -1.2443    0.7210    0.5182 C   0  0  0  0  0  0  0  0  0  0  0  0
    0.9615    1.3087   -0.2623 C   0  0  0  0  0  0  0  0  0  0  0  0
   -2.3048   -0.1606    0.7212 C   0  0  0  0  0  0  0  0  0  0  0  0
   -2.1797   -1.4240    0.3601 C   0  0  0  0  0  0  0  0  0  0  0  0
   -0.0155   -0.9316   -0.3957 C   0  0  0  0  0  0  0  0  0  0  0  0
   -3.3352   -2.3102    0.5401 C   0  0  0  0  0  0  0  0  0  0  0  0
   -1.5182    2.1424    0.8920 C   0  0  0  0  0  0  0  0  0  0  0  0
  1  2  1  0
  1  4  1  0
  1  5  1  0
  1  7  2  0
  2 11  1  0
  3 12  1  0
  6 16  2  0
  8 13  2  0
  8 14  1  0
  9 10  1  0
  9 11  1  0
  9 14  2  0
 10 12  2  0
 10 16  1  0
 12 13  1  0
 13 15  1  0
M  END
>  <DATABASE_ID>  (10) 
DB00114

>  <DATABASE_NAME>  (10) 
drugbank

>  <SMILES>  (10) 
CC1=NC=C(COP(O)(O)=O)C(C=O)=C1O

>  <INCHI_IDENTIFIER>  (10) 
InChI=1S/C8H10NO6P/c1-5-8(11)7(3-10)6(2-9-5)4-15-16(12,13)14/h2-3,11H,4H2,1H3,(H2,12,13,14)

>  <INCHI_KEY>  (10) 
NGVDGCNFYWLIFO-UHFFFAOYSA-N

>  <FORMULA>  (10) 
C8H10NO6P

>  <MOLECULAR_WEIGHT>  (10) 
247.1419

>  <EXACT_MASS>  (10) 
247.024573569

>  <JCHEM_ACCEPTOR_COUNT>  (10) 
6

>  <JCHEM_AVERAGE_POLARIZABILITY>  (10) 
20.89888718130824

>  <JCHEM_BIOAVAILABILITY>  (10) 
1

>  <JCHEM_DONOR_COUNT>  (10) 
3

>  <JCHEM_FORMAL_CHARGE>  (10) 
0

>  <JCHEM_GHOSE_FILTER>  (10) 
0

>  <JCHEM_IUPAC>  (10) 
[(4-formyl-5-hydroxy-6-methylpyridin-3-yl)methoxy]phosphonic acid

>  <ALOGPS_LOGP>  (10) 
-0.55

>  <JCHEM_LOGP>  (10) 
-2.0856087036128135

>  <ALOGPS_LOGS>  (10) 
-1.64

>  <JCHEM_MDDR_LIKE_RULE>  (10) 
0

>  <JCHEM_NUMBER_OF_RINGS>  (10) 
1

>  <JCHEM_PHYSIOLOGICAL_CHARGE>  (10) 
-2

>  <JCHEM_PKA>  (10) 
6.691277029499376

>  <JCHEM_PKA_STRONGEST_ACIDIC>  (10) 
1.6802986106557465

>  <JCHEM_PKA_STRONGEST_BASIC>  (10) 
4.109012435085948

>  <JCHEM_POLAR_SURFACE_AREA>  (10) 
116.95

>  <JCHEM_REFRACTIVITY>  (10) 
54.746300000000005

>  <JCHEM_ROTATABLE_BOND_COUNT>  (10) 
4

>  <JCHEM_RULE_OF_FIVE>  (10) 
1

>  <ALOGPS_SOLUBILITY>  (10) 
5.70e+00 g/l

>  <JCHEM_TRADITIONAL_IUPAC>  (10) 
pyridoxal phosphate

>  <JCHEM_VEBER_RULE>  (10) 
0

>  <DRUGBANK_ID>  (10) 
DB00114

>  <SECONDARY_ACCESSION_NUMBERS>  (10) 
NUTR00045

>  <DRUG_GROUPS>  (10) 
approved; investigational; nutraceutical

>  <GENERIC_NAME>  (10) 
Pyridoxal Phosphate

>  <SYNONYMS>  (10) 
3-hydroxy-2-methyl-5-((phosphonooxy)methyl)-4-pyridinecarboxaldehyde; 3-hydroxy-5-(hydroxymethyl)-2-methylisonicotinaldehyde 5-phosphate; Codecarboxylase; PLP; Pyridoxal 5-monophosphoric acid ester; Pyridoxal 5-phosphate; Pyridoxal 5'-phosphate; Pyridoxal P; Pyridoxal phosphate anhydrous; Pyridoxal-5P; Pyridoxal-P

>  <PRODUCTS>  (10) 
BumP DHA; Dyzbac; EnBrace HR; EnLyte; L-Methyl-B6-B12; Levomefolate Calcium Pyridoxal-5 Phosphate Mecobalamin Algal; Levomefolate Calcium, Pyridoxal 5-phosphate, Methylcobalamin and Schizochytrium DHA Oil; Lexazin; Mebolex; Medi-10; Methazel; PramLyte; Vita-Rx Diabetic Vitamin

>  <INTERNATIONAL_BRANDS>  (10) 
Biosechs; Himitan; Vitazechs

>  <SALTS>  (10) 
Pyridoxal phosphate hydrate

$$$$
